Circuit: * C:\Users\Titus\Desktop\TP-Circuitos-2\TP2\simulaciones\entrada_balanceada.asc

Direct Newton iteration failed to find .op point.  (Use ".option noopiter" to skip.)
Starting Gmin stepping
Gmin = 10
Gmin = 1.07374
Gmin = 0.115292
Gmin = 0.0123794
Gmin = 0.00132923
Gmin = 0.000142725
Gmin = 1.5325e-005
Gmin = 1.6455e-006
Gmin = 1.76685e-007
Gmin = 1.89714e-008
vernier = 0.5
vernier = 0.25
Gmin = 4.97323e-009
vernier = 0.125
vernier = 0.0625
vernier = 0.03125
vernier = 0.015625
Gmin = 4.64433e-009
vernier = 0.0208333
vernier = 0.0277778
Gmin = 4.41878e-009
vernier = 0.037037
Gmin = 4.07625e-009
vernier = 0.0493827
vernier = 0.0658435
Gmin = 3.57284e-009
vernier = 0.0877914
vernier = 0.117055
Gmin = 2.90163e-009
vernier = 0.156073
Gmin = 2.0744e-009
vernier = 0.208098
vernier = 0.277464
Gmin = 1.2043e-009
vernier = 0.369952
vernier = 0.493269
Gmin = 5.15649e-010
vernier = 0.657691
Gmin = 1.34675e-010
vernier = 0.876922
vernier = 1
Gmin = 1.80274e-011
Gmin = 1.93568e-012
Gmin = 2.07842e-013
Gmin = 0
Gmin stepping succeeded in finding the operating point.


Date: Tue Nov 21 22:32:07 2017
Total elapsed time: 0.078 seconds.

tnom = 27
temp = 27
method = trap
totiter = 1353
traniter = 0
tranpoints = 0
accept = 0
rejected = 0
matrix size = 30
fillins = 37
solver = Normal
Matrix Compiler1:     184 opcodes
Matrix Compiler2: off  [1.0]/1.3/5.1


