Circuit: * C:\Users\Titus\Desktop\TP-Circuitos-2\TP2\simulaciones\Entrada-micro-1Mhz - Kopie.asc

Direct Newton iteration failed to find .op point.  (Use ".option noopiter" to skip.)
Starting Gmin stepping
Gmin = 10
Gmin = 1.07374
Gmin = 0.115292
Gmin = 0.0123794
Gmin = 0.00132923
Gmin = 0.000142725
Gmin = 1.5325e-005
Gmin = 1.6455e-006
Gmin = 1.76685e-007
Gmin = 1.89714e-008
Gmin = 2.03704e-009
Gmin = 2.18725e-010
Gmin = 2.34854e-011
Gmin = 2.52173e-012
Gmin = 2.70769e-013
Gmin = 0
Gmin stepping succeeded in finding the operating point.


Date: Wed Nov 15 11:05:20 2017
Total elapsed time: 10.249 seconds.

tnom = 27
temp = 27
method = modified trap
totiter = 506267
traniter = 505714
tranpoints = 155072
accept = 118396
rejected = 36676
matrix size = 57
fillins = 23
solver = Normal
Matrix Compiler1: 3.06 KB object code size  1.7/1.4/[0.7]
Matrix Compiler2: off  [1.0]/1.7/5.9


