Circuit: * C:\Users\Titus\Desktop\TP-Circuitos-2\TP2\simulaciones\entrada-300k.asc

Per .tran options, skipping operating point for transient analysis.
Changing Tseed to 9.76562e-010
Changing Tseed to 9.76562e-012
Heightened Def Con from 1.69313e-005 to 1.69313e-005

Date: Wed Nov 15 22:04:02 2017
Total elapsed time: 5.584 seconds.

tnom = 27
temp = 27
method = modified trap
totiter = 179068
traniter = 179068
tranpoints = 51069
accept = 33904
rejected = 17164
matrix size = 36
fillins = 22
solver = Normal
Thread vector: 37.6/16.5[3] 11.7/6.4[3] 4.2/2.1[3] 0.4/1.5[1]  2592/500
Matrix Compiler1: 3.39 KB object code size  2.0/1.2/[0.4]
Matrix Compiler2: 4.08 KB object code size  1.0/1.1/[0.6]


