Circuit: * C:\Users\Titus\Desktop\TP-Circuitos-2\TP2\simulaciones\tensiones_referencia.asc

Direct Newton iteration for .op point succeeded.
Ignoring empty pin current: Ix(u3:11)
Ignoring empty pin current: Ix(u1:11)
Ignoring empty pin current: Ix(u3:11)
Ignoring empty pin current: Ix(u1:11)

Date: Wed Nov 22 02:24:53 2017
Total elapsed time: 0.101 seconds.

tnom = 27
temp = 27
method = modified trap
totiter = 2124
traniter = 2089
tranpoints = 1045
accept = 1045
rejected = 0
matrix size = 36
fillins = 14
solver = Normal
Matrix Compiler1: 2.45 KB object code size  1.7/1.5/[0.5]
Matrix Compiler2: off  [0.9]/1.5/4.2


