Circuit: * C:\Users\Titus\Desktop\TP-Circuitos-2\TP2\simulaciones\triangular.asc

WARNING: Specified period is not longer than the sum of Trise, Tfall, and Ton for v4.  Increasing period to 0.001
Limiting rise time of source v4 to 1.95156e-019
Limiting fall time of source v4 to 1.95156e-019
WARNING: Less than two connections to node -VCC.  This node is used by V2.
WARNING: Less than two connections to node VDD.  This node is used by V3.
Direct Newton iteration failed to find .op point.  (Use ".option noopiter" to skip.)
Starting Gmin stepping
Gmin = 10
vernier = 0.5
vernier = 0.25
vernier = 0.125
Gmin = 4.96485
vernier = 0.0625
vernier = 0.03125
vernier = 0.015625
Gmin = 4.8129
vernier = 0.0078125
vernier = 0.00390625
vernier = 0.00195313
vernier = 0.000976563
vernier = 0.000488281
Gmin = 4.82934
Gmin = 0
Gmin stepping failed

Starting source stepping with srcstepmethod=0
Source Step = 3.0303%
Source Step = 33.3333%
Source Step = 63.6364%
Source Step = 93.9394%
Source stepping succeeded in finding the operating point.

Heightened Def Con from 0.055525 