Circuit: * C:\Users\Titus\Desktop\tp c2\simulacion\circuito.asc

Warning: Multiple definitions of model "bc548b" Type: BJT
Early termination of direct N-R iteration.
Direct Newton iteration failed to find .op point.  (Use ".option noopiter" to skip.)
Starting Gmin stepping
Gmin = 10
vernier = 0.5
vernier = 0.25
vernier = 0.125
Gmin = 6.68666
vernier = 0.0625
vernier = 0.03125
vernier = 0.015625
vernier = 0.0078125
Gmin = 6.72377
vernier = 0.00390625
vernier = 0.00195313
vernier = 0.000976563
vernier = 0.000488281
Gmin = 6.72131
Gmin = 0
Gmin stepping failed

Starting source stepping with srcstepmethod=0
Source Step = 3.0303%
Source Step = 18.75%
Source Step = 20.6439%
Source Step = 22.5379%
Source Step = 24.4318%
Source Step = 26.3258%
vernier = 0.09375
Source Step = 28.4091%
Source Step = 31.25%
Source Step = 34.0909%
Source Step = 36.9318%
Source Step = 39.7727%
vernier = 0.140625
Source Step = 42.7557%
Source Step = 47.017%
Source Step = 51.2784%
Source Step = 55.5398%
Source Step = 59.8011%
Source Step = 64.0625%
vernier = 0.210938
Source Step = 70.4545%
Source Step = 76.8466%
Source Step = 83.2386%
Source Step = 89.6307%
Source Step = 96.0227%
vernier = 0.316406
Source stepping succeeded in finding the operating point.

Ignoring empty pin current: Ix(u2:11)
Ignoring empty pin current: Ix(u2:11)

Date: Tue Aug 22 13:21:17 2017
Total elapsed time: 0.794 seconds.

tnom = 27
temp = 27
method = modified trap
totiter = 4603
traniter = 2090
tranpoints = 1046
accept = 1046
rejected = 0
matrix size = 117
fillins = 485
solver = Normal
Matrix Compiler1: 51.51 KB object code size  15.5/9.6/[4.4]
Matrix Compiler2:    1317 opcodes  4.0/[4.0]/18.1


