Circuit: * C:\Users\Titus\Desktop\TP-Circuitos-2\TP1\simulacion\7905.asc

Warning: Multiple definitions of model "bc548b" Type: BJT
Early termination of direct N-R iteration.
Direct Newton iteration failed to find .op point.  (Use ".option noopiter" to skip.)
Starting Gmin stepping
Gmin = 10
Gmin = 1.07374
Gmin = 0.115292
Gmin = 0.0123794
Gmin = 0.00132923
Gmin = 0.000142725
Gmin = 1.5325e-005
Gmin = 1.6455e-006
Gmin = 1.76685e-007
Gmin = 1.89714e-008
Gmin = 2.03704e-009
Gmin = 2.18725e-010
Gmin = 2.34854e-011
Gmin = 2.52173e-012
Gmin = 2.70769e-013
Gmin = 0
Gmin stepping succeeded in finding the operating point.

Ignoring empty pin current: Ix(u2:11)
Ignoring empty pin current: Ix(u2:11)
Changing Tseed to 9.76563e-011

Date: Sun Sep 03 18:36:14 2017
Total elapsed time: 0.234 seconds.

tnom = 27
temp = 27
method = modified trap
totiter = 2734
traniter = 2093
tranpoints = 1043
accept = 1042
rejected = 0
matrix size = 54
fillins = 124
solver = Normal
Thread vector: 20.0/12.5[3] 15.3/6.2[3] 8.4/5.1[3] 0.7/1.5[1]  2592/500
Matrix Compiler1: 14.60 KB object code size  4.7/3.5/[1.4]
Matrix Compiler2: off  [1.6]/1.8/10.9


