Circuit: * C:\Users\Titus\Desktop\TP-Circuitos-2\TP1\simulacion\circuito_reemplazo.asc

Warning: Multiple definitions of model "bc548b" Type: BJT
WARNING: Less than two connections to node NC_01.  This node is used by R25.
Early termination of direct N-R iteration.
Direct Newton iteration failed to find .op point.  (Use ".option noopiter" to skip.)
Starting Gmin stepping
Gmin = 10
vernier = 0.5
vernier = 0.25
vernier = 0.125
Gmin = 6.68666
vernier = 0.0625
vernier = 0.03125
vernier = 0.015625
vernier = 0.0078125
Gmin = 6.72377
vernier = 0.00390625
vernier = 0.00195313
vernier = 0.000976563
vernier = 0.000488281
Gmin = 6.72131
Gmin = 0
Gmin stepping failed

Starting source stepping with srcstepmethod=0
Source Step = 3.0303%
Source Step = 21.2595%
vernier = 0.00390625
Source Step = 21.2388%
Source Step = 21.2683%
Source Step = 21.2979%
Source Step = 21.3275%
Source Step = 21.3571%
vernier = 0.00146484
Source Step = 21.3971%
Source Step = 21.4415%
Source Step = 21.4859%
Source Step = 21.5302%
Source Step = 21.5746%
vernier = 0.00219727
Source Step = 21.6323%
Source Step = 21.6989%
Source Step = 21.7655%
Source Step = 21.8321%
Source Step = 21.8987%
vernier = 0.0032959
Source Step = 21.9819%
Source Step = 22.0818%
Source Step = 22.1817%
Source Step = 22.2815%
Source Step = 22.3814%
vernier = 0.00494385
Source Step = 22.5013%
Source Step = 22.6511%
Source Step = 22.8009%
Source Step = 22.9507%
Source Step = 23.1005%
vernier = 0.00741577
Source Step = 23.2728%
Source Step = 23.4975%
Source Step = 23.7222%
Source Step = 23.947%
Source Step = 24.1717%
vernier = 0.0111237
Source Step = 24.4189%
Source Step = 24.756%
Source Step = 25.093%
Source Step = 25.4301%
Source Step = 25.7672%
vernier = 0.0166855
Source Step = 26.1211%
Source Step = 26.6267%
Source Step = 27.1324%
Source Step = 27.638%
Source Step = 28.1436%
Source Step = 28.6492%
vernier = 0.0250282
Source Step = 29.4077%
Source Step = 30.1661%
Source Step = 30.9245%
Source Step = 31.683%
Source Step = 32.4414%
vernier = 0.0375423
Source Step = 33.5411%
Source Step = 34.6788%
Source Step = 35.8164%
Source Step = 36.9541%
Source Step = 38.0917%
vernier = 0.0563135
Source Step = 39.6844%
Source Step = 41.3909%
Source Step = 43.0973%
Source Step = 44.8038%
Source Step = 46.5103%
vernier = 0.0844703
Source Step = 48.814%
Source Step = 51.3737%
Source Step = 53.9334%
Source Step = 56.4931%
Source Step = 59.0528%
vernier = 0.126705
Source Step = 62.3805%
Source Step = 66.22%
Source Step = 70.0596%
Source Step = 73.8991%
Source Step = 77.7387%
vernier = 0.190058
Source Step = 82.5381%
Source Step = 88.2975%
Source Step = 94.0568%
Source Step = 99.8161%
Source stepping succeeded in finding the operating point.

Ignoring empty pin current: Ix(u2:11)
Ignoring empty pin current: Ix(u2:11)

Date: Mon Oct 09 02:17:26 2017
Total elapsed time: 0.927 seconds.

tnom = 27
temp = 27
method = trap
totiter = 4312
traniter = 0
tranpoints = 0
accept = 0
rejected = 0
matrix size = 128
fillins = 416
solver = Normal
Matrix Compiler1:    2217 opcodes
Matrix Compiler2: off  [3.3]/4.1/18.4


