Circuit: * C:\Users\Titus\Desktop\TP-Circuitos-2\TP1\simulacion\circuito_reemplazo.asc

Warning: Multiple definitions of model "bc548b" Type: BJT
C15: both pins shorted together -- ignoring.
Early termination of direct N-R iteration.
Direct Newton iteration failed to find .op point.  (Use ".option noopiter" to skip.)
Starting Gmin stepping
Gmin = 10
vernier = 0.5
vernier = 0.25
vernier = 0.125
Gmin = 6.68666
vernier = 0.0625
vernier = 0.03125
vernier = 0.015625
vernier = 0.0078125
Gmin = 6.72377
vernier = 0.00390625
vernier = 0.00195313
vernier = 0.000976563
vernier = 0.000488281
Gmin = 6.72131
Gmin = 0
Gmin stepping failed

Starting source stepping with srcstepmethod=0
Source Step = 3.0303%
Source Step = 33.3333%
Source Step = 63.6364%
Source Step = 93.9394%
Source stepping succeeded in finding the operating point.

Ignoring empty pin current: Ix(u2:11)
Ignoring empty pin current: Ix(u2:11)

Date: Sat Sep 09 18:33:11 2017
Total elapsed time: 1.179 seconds.

tnom = 27
temp = 27
method = modified trap
totiter = 3930
traniter = 2088
tranpoints = 1045
accept = 1045
rejected = 0
matrix size = 156
fillins = 639
solver = Normal
Thread vector: 44.4/25.6[4] 28.2/9.8[4] 16.9/7.4[4] 1.9/3.7[1]  2592/500
Matrix Compiler1: 71.51 KB object code size  21.5/16.3/[7.5]
Matrix Compiler2: off  [5.6]/6.1/26.7


