Circuit: * C:\Users\Titus\Desktop\TP-Circuitos-2\TP1\simulacion\circuito.asc

Warning: Multiple definitions of model "bc548b" Type: BJT
C15: both pins shorted together -- ignoring.
Early termination of direct N-R iteration.
Direct Newton iteration failed to find .op point.  (Use ".option noopiter" to skip.)
Starting Gmin stepping
Gmin = 10
vernier = 0.5
vernier = 0.25
vernier = 0.125
Gmin = 6.68666
vernier = 0.0625
vernier = 0.03125
vernier = 0.015625
vernier = 0.0078125
Gmin = 6.72377
vernier = 0.00390625
vernier = 0.00195313
vernier = 0.000976563
vernier = 0.000488281
Gmin = 6.72131
Gmin = 0
Gmin stepping failed

Starting source stepping with srcstepmethod=0
Source Step = 3.0303%
Source Step = 18.9394%
Source Step = 26.5152%
Source Step = 34.0909%
Source Step = 41.6667%
Source Step = 49.2424%
vernier = 0.375
Source Step = 58.3333%
Source Step = 69.697%
Source Step = 81.0606%
Source Step = 92.4242%
Source stepping succeeded in finding the operating point.

Ignoring empty pin current: Ix(u2:11)
Ignoring empty pin current: Ix(u2:11)

Date: Tue Aug 29 13:10:05 2017
Total elapsed time: 0.588 seconds.

tnom = 27
temp = 27
method = modified trap
totiter = 4504
traniter = 2438
tranpoints = 1214
accept = 1214
rejected = 0
matrix size = 116
fillins = 418
solver = Normal
Matrix Compiler1: 44.54 KB object code size  14.0/8.7/[3.6]
Matrix Compiler2: off  [3.6]/4.0/18.8


