Circuit: * C:\Users\Titus\Desktop\TP-Circuitos-2\TP1\simulacion\circuito_reemplazo.asc

Warning: Multiple definitions of model "bc548b" Type: BJT
Early termination of direct N-R iteration.
Direct Newton iteration failed to find .op point.  (Use ".option noopiter" to skip.)
Starting Gmin stepping
Gmin = 10
vernier = 0.5
vernier = 0.25
vernier = 0.125
Gmin = 6.68666
vernier = 0.0625
vernier = 0.03125
vernier = 0.015625
vernier = 0.0078125
Gmin = 6.72377
vernier = 0.00390625
vernier = 0.00195313
vernier = 0.000976563
vernier = 0.000488281
Gmin = 6.72131
Gmin = 0
Gmin stepping failed

Starting source stepping with srcstepmethod=0
Source Step = 3.0303%
Source Step = 23.4848%
Source Step = 31.0606%
Source Step = 38.6364%
Source Step = 46.2121%
Source Step = 53.7879%
vernier = 0.375
Source Step = 62.1212%
Source Step = 73.4848%
Source Step = 84.8485%
Source Step = 96.2121%
Source stepping succeeded in finding the operating point.

Ignoring empty pin current: Ix(u2:11)
Ignoring empty pin current: Ix(u2:11)
Changing Tseed to 1.95313e-010
Changing Tseed to 1.95312e-012
Changing Tseed to 1.95312e-009
Changing Tseed to 1.95313e-013
Heightened Def Con from 3.90625e-013 to 1.01602e-009
Heightened Def Con from 1.01608e-009 to 1.0317e-009
Heightened Def Con from 1.0317e-009 to 1.04733e-009
Heightened Def Con from 1.04733e-009 to 1.04757e-009
Heightened Def Con from 1.04806e-009 to 1.0483e-009
Heightened Def Con from 1.0483e-009 +to 1.04833e-009
Heightened Def Con from 1.04833e-009 ++to 2.06396e-009
Heightened Def Con from 2.06402e-009 to 2.06622e-009
Heightened Def Con from 2.06683e-009 to 2.06686e-009
Heightened Def Con from 2.06686e-009 to 2.08248e-009
Heightened Def Con from 2.08267e-009 +to 2.20767e-009
Heightened Def Con from 2.20913e-009 +to 2.20913e-009
Heightened Def Con from 2.20913e-009 +to 2.22671e-009
Heightened Def Con from 2.23355e-009 to 3.23379e-009
Heightened Def Con from 3.23428e-009 to 3.23453e-009
Heightened Def Con from 3.23453e-009 to 3.25015e-009
Heightened Def Con from 3.25064e-009 to 3.25088e-009
Heightened Def Con from 3.25223e-009 ++to 3.25418e-009
Heightened Def Con from 3.25589e-009 to 3.25784e-009
Heightened Def Con from 3.25784e-009 to 3.27347e-009
Heightened Def Con from 3.27347e-009 to 3.27371e-009
Heightened Def Con from 3.27371e-009 to 3.27395e-009
Heightened Def Con from 3.27456e-009 to 3.29214e-009
Heightened Def Con from 3.29214e-009 to 3.2941e-009
Heightened Def Con from 3.2941e-009 to 3.31168e-009
Heightened Def Con from 3.31571e-009 to 4.33133e-009
Heightened Def Con from 4.3328e-009 ++to 5.33283e-009
Heightened Def Con from 5.33283e-009 to 5.33307e-009
Heightened Def Con from 5.33314e-009 to 5.33338e-009
Heightened Def Con from 5.33344e-009 +to 6.34907e-009
Heightened Def Con from 6.38068e-009 +to 7.38068e-009
Heightened Def Con from 7.38068e-009 to 7.39631e-009
Heightened Def Con from 7.39631e-009 to 7.41193e-009
Heightened Def Con from 7.41193e-009 to 7.42756e-009
Heightened Def Con from 7.48273e-009 to 7.48469e-009
Heightened Def Con from 7.48615e-009 ++to 8.50178e-009
Heightened Def Con from 8.50178e-009 ++to 9.50202e-009
Heightened Def Con from 9.50202e-009 ++to 9.50397e-009
Heightened Def Con from 9.50446e-009 +to 9.52009e-009
Heightened Def Con from 9.52009e-009 +to 1.05203e-008
Heightened Def Con from 1.05204e-008 +to 1.05223e-008
Heightened Def Con from 1.05264e-008 to 1.05266e-008
Heightened Def Con from 1.05281e-008 +to 1.053e-008
Heightened Def Con from 1.05302e-008 to 1.05305e-008
Heightened Def Con from 1.05305e-008 +to 1.15307e-008
Heightened Def Con from 1.15312e-008 to 1.16562e-008
Heightened Def Con from 1.16562e-008 to 1.16582e-008
Heightened Def Con from 1.16582e-008 ++++to 1.16584e-008
Heightened Def Con from 1.16584e-008 to 1.16586e-008
Heightened Def Con from 1.16593e-008 to 1.16905e-008
Heightened Def Con from 1.16906e-008 +to 1.26906e-008
Heightened Def Con from 1.26906e-008 +to 1.27062e-008
Heightened Def Con from 1.27062e-008 ++to 1.27082e-008
Heightened Def Con from 1.27082e-008 to 1.37238e-008
Heightened Def Con from 1.37238e-008 to 1.37394e-008
Heightened Def Con from 1.37716e-008 to 1.48966e-008
Heightened Def Con from 1.48971e-008 to 1.48991e-008
Heightened Def Con from 1.48991e-008 to 1.48993e-008
Heightened Def Con from 1.48998e-008 to 1.49157e-008
Heightened Def Con from 1.49157e-008 ++to 1.49313e-008
Heightened Def Con from 1.49313e-008 to 1.49316e-008
Heightened Def Con from 1.49316e-008 to 1.49335e-008
Heightened Def Con from 1.49374e-008 +to 1.49531e-008
Heightened Def Con from 1.49532e-008 to 1.49552e-008
Heightened Def Con from 1.49584e-008 +++to 1.49741e-008
Heightened Def Con from 1.49747e-008 to 1.49749e-008
Heightened Def Con from 1.49749e-008 +to 1.69749e-008
Heightened Def Con from 1.7014e-008 to 1.80296e-008
Heightened Def Con from 1.80609e-008 to 1.80628e-008
Heightened Def Con from 1.8063e-008 to 1.80633e-008
Heightened Def Con from 1.80637e-008 to 1.80657e-008
Heightened Def Con from 1.80706e-008 to 1.80862e-008
Heightened Def Con from 1.80862e-008 to 1.80882e-008
Heightened Def Con from 1.80922e-008 to 1.80924e-008
Heightened Def Con from 1.80925e-008 ++to 1.80944e-008
Heightened Def Con from 1.80993e-008 to 1.80996e-008
Heightened Def Con from 1.80996e-008 to 1.80999e-008
Heightened Def Con from 1.81004e-008 to 1.91006e-008
Heightened Def Con from 1.91011e-008 +to 1.9103e-008
Heightened Def Con from 1.9107e-008 +to 2.01072e-008
Heightened Def Con from 2.01087e-008 +++to 2.01243e-008
Heightened Def Con from 2.01243e-008 to 2.01246e-008
Heightened Def Con from 2.01251e-008 ++to 2.11427e-008
Heightened Def Con from 2.11432e-008 +to 2.11451e-008
Heightened Def Con from 2.11453e-008 to 2.11612e-008
Heightened Def Con from 2.11612e-008 +to 2.11631e-008
Heightened Def Con from 2.11636e-008 ++to 2.12889e-008
Heightened Def Con from 2.12889e-008 +to 2.12908e-008
Heightened Def Con from 2.12947e-008 +to 2.22947e-008
Heightened Def Con from 2.22962e-008 +to 2.22982e-008
Heightened Def Con from 2.23021e-008 to 2.23023e-008
Heightened Def Con from 2.23023e-008 to 2.34273e-008
Heightened Def Con from 2.34273e-008 to 2.34293e-008
Heightened Def Con from 2.34297e-008 +to 2.34298e-008
Heightened Def Con from 2.34298e-008 to 2.34474e-008
Heightened Def Con from 2.34513e-008 to 2.34515e-008
Heightened Def Con from 2.34516e-008 to 2.34672e-008
Heightened Def Con from 2.34687e-008 to 2.34706e-008
Heightened Def Con from 2.34706e-008 +to 2.34706e-008
Heightened Def Con from 2.34706e-008 to 2.34728e-008
Heightened Def Con from 2.3473e-008 +to 2.34887e-008
Heightened Def Con from 2.34887e-008 to 2.44887e-008
Heightened Def Con from 2.44887e-008 to 2.44907e-008
Heightened Def Con from 2.44939e-008 to 2.45095e-008
Heightened Def Con from 2.45095e-008 +to 2.45115e-008
Heightened Def Con from 2.45115e-008 to 2.45271e-008
Heightened Def Con from 2.45593e-008 to 2.4575e-008
Heightened Def Con from 2.45934e-008 to 2.45934e-008
Heightened Def Con from 2.45934e-008 +to 2.45954e-008
Heightened Def Con from 2.45954e-008 +to 2.45956e-008
Heightened Def Con from 2.45956e-008 +to 2.55959e-008
Heightened Def Con from 2.55959e-008 +to 2.56135e-008
Heightened Def Con from 2.56135e-008 to 2.56138e-008
Heightened Def Con from 2.56138e-008 +to 2.56157e-008
Heightened Def Con from 2.56159e-008 +to 2.56315e-008
Heightened Def Con from 2.56316e-008 to 2.66472e-008
Heightened Def Con from 2.66511e-008 to 2.66667e-008
Heightened Def Con from 2.67058e-008 ++to 2.67078e-008
Heightened Def Con from 2.67117e-008 to 2.77273e-008
Heightened Def Con from 2.77274e-008 to 2.77276e-008
Heightened Def Con from 2.77305e-008 ++to 2.77305e-008
Heightened Def Con from 2.77305e-008 to 2.77307e-008
Heightened Def Con from 2.77307e-008 to 2.87327e-008
Heightened Def Con from 2.87341e-008 to 2.87344e-008
Heightened Def Con from 2.87344e-008 +to 2.875e-008
Heightened Def Con from 2.87822e-008 to 2.87979e-008
Heightened Def Con from 2.87979e-008 to 2.87981e-008
Heightened Def Con from 2.87983e-008 to 2.88142e-008
Heightened Def Con from 2.88142e-008 +to 2.89392e-008
Heightened Def Con from 2.89392e-008 to 2.89392e-008
Heightened Def Con from 2.89392e-008 to 2.89549e-008
Heightened Def Con from 2.89549e-008 to 2.99705e-008
Heightened Def Con from 3.00115e-008 to 3.00117e-008
Heightened Def Con from 3.00118e-008 to 3.00118e-008
Heightened Def Con from 3.00118e-008 to 3.0014e-008
Heightened Def Con from 3.00142e-008 to 3.00145e-008
Heightened Def Con from 3.00145e-008 ++to 3.00165e-008
Heightened Def Con from 3.00165e-008 to 3.00321e-008
Heightened Def Con from 3.0033e-008 to 3.0033e-008
Heightened Def Con from 3.0033e-008 +to 3.1033e-008
Heightened Def Con from 3.1283e-008 to 3.2283e-008
Heightened Def Con from 3.22835e-008 +to 3.22855e-008
Heightened Def Con from 3.22859e-008 +to 3.24109e-008
Heightened Def Con from 3.24149e-008 +to 3.24168e-008
Heightened Def Con from 3.24168e-008 +to 3.24171e-008
Heightened Def Con from 3.24185e-008 to 3.24205e-008
Heightened Def Con from 3.24307e-008 to 3.25558e-008
Heightened Def Con from 3.25558e-008 to 3.25561e-008
Heightened Def Con from 3.25561e-008 to 3.25563e-008
Heightened Def Con from 3.25563e-008 ++to 3.26813e-008
Heightened Def Con from 3.26813e-008 +++to 3.26816e-008
Heightened Def Con from 3.26816e-008 to 3.36972e-008
Heightened Def Con from 3.36972e-008 +to 3.37128e-008
Heightened Def Con from 3.37441e-008 to 3.3746e-008
Heightened Def Con from 3.37465e-008 +to 3.37485e-008
Heightened Def Con from 3.37524e-008 to 3.4768e-008
Heightened Def Con from 3.47697e-008 to 3.47698e-008
Heightened Def Con from 3.47698e-008 to 3.4801e-008
Heightened Def Con from 3.48015e-008 to 3.48018e-008
Heightened Def Con from 3.48018e-008 +to 3.58018e-008
Heightened Def Con from 3.58057e-008 to 3.58213e-008
Heightened Def Con from 3.58214e-008 to 3.58253e-008
Heightened Def Con from 3.58258e-008 ++to 3.58278e-008
Heightened Def Con from 3.5832e-008 to 3.5834e-008
Heightened Def Con from 3.5838e-008 +to 3.58693e-008
Heightened Def Con from 3.58693e-008 to 3.58695e-008
Heightened Def Con from 3.58695e-008 to 3.58851e-008
Heightened Def Con from 3.5886e-008 to 3.7886e-008
Heightened Def Con from 3.78909e-008 to 3.78911e-008
Heightened Def Con from 3.78911e-008 to 3.78914e-008
Heightened Def Con from 3.78953e-008 +to 3.78955e-008
Heightened Def Con from 3.7896e-008 +to 3.8896e-008
Heightened Def Con from 3.89009e-008 +to 3.89011e-008
Heightened Def Con from 3.89011e-008 to 3.99167e-008
Heightened Def Con from 3.99558e-008 to 4.0956e-008
Heightened Def Con from 4.09561e-008 to 4.19581e-008
Heightened Def Con from 4.19581e-008 +to 4.19737e-008
Heightened Def Con from 4.19788e-008 to 4.19944e-008
Heightened Def Con from 4.19983e-008 to 4.20003e-008
Heightened Def Con from 4.20008e-008 to 4.20184e-008
Heightened Def Con from 4.20232e-008 to 4.20252e-008
Heightened Def Con from 4.20261e-008 +to 4.20281e-008
Heightened Def Con from 4.20281e-008 +to 4.20283e-008
Heightened Def Con from 4.20288e-008 +to 4.20308e-008
Heightened Def Con from 4.20312e-008 +++++to 4.30312e-008
Heightened Def Con from 4.30312e-008 ++to 4.30469e-008
Heightened Def Con from 4.30586e-008 to 4.30588e-008
Heightened Def Con from 4.30589e-008 to 4.30748e-008
Heightened Def Con from 4.30748e-008 to 4.30904e-008
Heightened Def Con from 4.30905e-008 to 4.3108e-008
Heightened Def Con from 4.3108e-008 to 4.31237e-008
Heightened Def Con from 4.31242e-008 +++++to 4.31244e-008
Heightened Def Con from 4.31259e-008 to 4.31415e-008
Heightened Def Con from 4.31415e-008 +to 4.31415e-008
Heightened Def Con from 4.31415e-008 +to 4.31415e-008
Heightened Def Con from 4.31415e-008 to 4.41435e-008
Heightened Def Con from 4.41435e-008 to 4.41454e-008
Heightened Def Con from 4.41454e-008 to 4.51474e-008
Heightened Def Con from 4.51542e-008 to 4.61545e-008
Heightened Def Con from 4.6155e-008 to 4.61552e-008
Heightened Def Con from 4.61552e-008 +++to 4.61571e-008
Heightened Def Con from 4.61571e-008 +to 4.61591e-008
Heightened Def Con from 4.61591e-008 to 4.61593e-008
Heightened Def Con from 4.61593e-008 ++to 4.6175e-008
Heightened Def Con from 4.6175e-008 to 4.61906e-008
Heightened Def Con from 4.61906e-008 to 4.71926e-008
Heightened Def Con from 4.71928e-008 to 4.7224e-008
Heightened Def Con from 4.7228e-008 to 4.823e-008
Heightened Def Con from 4.82305e-008 to 4.82305e-008
Heightened Def Con from 4.82305e-008 +to 4.83556e-008
Heightened Def Con from 4.83556e-008 +to 4.83595e-008
Heightened Def Con from 4.83595e-008 to 4.83614e-008
Heightened Def Con from 4.83619e-008 to 4.83621e-008
Heightened Def Con from 4.83626e-008 +to 4.83645e-008
Heightened Def Con from 4.83646e-008 to 4.83649e-008
Heightened Def Con from 4.83653e-008 to 4.8381e-008
Heightened Def Con from 4.8381e-008 to 4.83966e-008
Heightened Def Con from 4.83966e-008 +to 4.93985e-008
Heightened Def Con from 4.93985e-008 to 5.03988e-008
Heightened Def Con from 5.03988e-008 to 5.04164e-008
Heightened Def Con from 5.04181e-008 to 5.04184e-008
Heightened Def Con from 5.04184e-008 to 5.04186e-008
Heightened Def Con from 5.04187e-008 +to 5.05593e-008
Heightened Def Con from 5.05598e-008 ++to 5.05598e-008
Heightened Def Con from 5.05598e-008 +to 5.05617e-008
Heightened Def Con from 5.05632e-008 to 5.05634e-008
Heightened Def Con from 5.05634e-008 to 5.15654e-008
Heightened Def Con from 5.15655e-008 to 5.25674e-008
Heightened Def Con from 5.25713e-008 to 5.26963e-008
Heightened Def Con from 5.26968e-008 +to 5.2697e-008
Heightened Def Con from 5.26972e-008 ++to 5.27129e-008
Heightened Def Con from 5.27129e-008 to 5.27131e-008
Heightened Def Con from 5.27172e-008 +to 5.27328e-008
Heightened Def Con from 5.27328e-008 to 5.27331e-008
Heightened Def Con from 5.27331e-008 to 5.2735e-008
Heightened Def Con from 5.2735e-008 to 5.27506e-008
Heightened Def Con from 5.27507e-008 to 5.27529e-008
Heightened Def Con from 5.27529e-008 +to 5.27685e-008
Heightened Def Con from 5.27685e-008 to 5.27688e-008
Heightened Def Con from 5.27688e-008 to 5.2769e-008
Heightened Def Con from 5.27708e-008 to 5.3771e-008
Heightened Def Con from 5.37715e-008 to 5.37872e-008
Heightened Def Con from 5.38458e-008 to 5.3846e-008
Heightened Def Con from 5.38461e-008 +to 5.385e-008
Heightened Def Con from 5.385e-008 to 5.38503e-008
Heightened Def Con from 5.38508e-008 +++to 5.48683e-008
Heightened Def Con from 5.48683e-008 to 5.4884e-008
Heightened Def Con from 5.4884e-008 +to 5.49153e-008
Heightened Def Con from 5.49482e-008 +to 5.49485e-008
Heightened Def Con from 5.49485e-008 +to 5.69485e-008
Heightened Def Con from 5.71995e-008 to 5.71997e-008
Heightened Def Con from 5.72002e-008 to 5.72021e-008
Heightened Def Con from 5.72027e-008 to 5.7234e-008
Heightened Def Con from 5.72346e-008 ++to 5.72502e-008
Heightened Def Con from 5.72502e-008 ++to 5.72659e-008
Heightened Def Con from 5.73086e-008 to 5.73242e-008
Heightened Def Con from 5.73257e-008 to 5.73259e-008
Heightened Def Con from 5.73259e-008 to 5.73279e-008
Heightened Def Con from 5.73279e-008 to 5.73281e-008
Heightened Def Con from 5.73281e-008 +to 5.73437e-008
Heightened Def Con from 5.73438e-008 to 5.73594e-008
Heightened Def Con from 5.73907e-008 to 5.73926e-008
Heightened Def Con from 5.73975e-008 to 5.83995e-008
Heightened Def Con from 5.84034e-008 ++to 5.94034e-008
Heightened Def Con from 5.94083e-008 to 5.94239e-008
Heightened Def Con from 5.94239e-008 to 5.94241e-008
Heightened Def Con from 5.94241e-008 to 5.94397e-008
Heightened Def Con from 5.94398e-008 to 5.94554e-008
Heightened Def Con from 5.94554e-008 to 5.94711e-008
Heightened Def Con from 5.95024e-008 +to 6.05044e-008
Heightened Def Con from 6.05083e-008 +to 6.05239e-008
Heightened Def Con from 6.05244e-008 ++to 6.05264e-008
Heightened Def Con from 6.05272e-008 +to 6.05273e-008
Heightened Def Con from 6.05273e-008 +to 6.05431e-008
Heightened Def Con from 6.05431e-008 +to 6.05451e-008
Heightened Def Con from 6.05464e-008 to 6.05467e-008
Heightened Def Con from 6.05501e-008 to 6.05657e-008
Heightened Def Con from 6.05658e-008 to 6.0566e-008
Heightened Def Con from 6.0566e-008 to 6.0568e-008
Heightened Def Con from 6.05797e-008 to 6.05817e-008
Heightened Def Con from 6.05817e-008 to 6.05973e-008
Heightened Def Con from 6.06285e-008 to 6.06442e-008
Heightened Def Con from 6.06481e-008 to 6.065e-008
Heightened Def Con from 6.06505e-008 +to 6.16507e-008
Heightened Def Con from 6.16509e-008 to 6.16529e-008
Heightened Def Con from 6.16627e-008 +to 6.16783e-008
Heightened Def Con from 6.17099e-008 to 6.27102e-008
Heightened Def Con from 6.27102e-008 to 6.27121e-008
Heightened Def Con from 6.27121e-008 to 6.27278e-008
Heightened Def Con from 6.27279e-008 to 6.27299e-008
Heightened Def Con from 6.27299e-008 to 6.27301e-008
Heightened Def Con from 6.27316e-008 to 6.27336e-008
Heightened Def Con from 6.27453e-008 to 6.27453e-008
Heightened Def Con from 6.27453e-008 +to 6.27453e-008
Heightened Def Con from 6.27453e-008 +to 6.37453e-008
Heightened Def Con from 6.37455e-008 +to 6.38705e-008
Heightened Def Con from 6.38705e-008 to 6.38725e-008
Heightened Def Con from 6.38725e-008 +to 6.39975e-008
Heightened Def Con from 6.39977e-008 to 6.40289e-008
Heightened Def Con from 6.40304e-008 to 6.4046e-008
Heightened Def Con from 6.4046e-008 to 6.4048e-008
Heightened Def Con from 6.4048e-008 to 6.40499e-008
Heightened Def Con from 6.40538e-008 +++to 6.40695e-008
Heightened Def Con from 6.407e-008 +to 6.40856e-008
Heightened Def Con from 6.41185e-008 to 6.41186e-008
Heightened Def Con from 6.41186e-008 +to 6.41188e-008
Heightened Def Con from 6.41193e-008 to 6.41195e-008
Heightened Def Con from 6.41195e-008 to 6.41215e-008
Heightened Def Con from 6.41255e-008 to 6.41412e-008
Heightened Def Con from 6.41412e-008 to 6.41412e-008
Heightened Def Con from 6.41412e-008 ++to 6.51432e-008
Heightened Def Con from 6.51432e-008 to 6.51588e-008
Heightened Def Con from 6.51902e-008 to 6.51902e-008
Heightened Def Con from 6.51902e-008 +to 6.51922e-008
Heightened Def Con from 6.51973e-008 to 6.51975e-008
Heightened Def Con from 6.5198e-008 +to 6.5198e-008
Heightened Def Con from 6.5198e-008 +to 6.5198e-008
Heightened Def Con from 6.5198e-008 ++to 6.52e-008
Heightened Def Con from 6.52e-008 to 6.52156e-008
Heightened Def Con from 6.5216e-008 to 6.52179e-008
Heightened Def Con from 6.52194e-008 to 6.52213e-008
Heightened Def Con from 6.52213e-008 to 6.52233e-008
Heightened Def Con from 6.52272e-008 +to 6.52272e-008
Heightened Def Con from 6.52272e-008 +to 6.52275e-008
Heightened Def Con from 6.5228e-008 to 6.5228e-008
Heightened Def Con from 6.5228e-008 to 6.62282e-008
Heightened Def Con from 6.62282e-008 to 6.62285e-008
Heightened Def Con from 6.62285e-008 +to 6.62441e-008
Heightened Def Con from 6.62441e-008 to 6.626e-008
Heightened Def Con from 6.62606e-008 to 6.62762e-008
Heightened Def Con from 6.63153e-008 to 6.63156e-008
Heightened Def Con from 6.63156e-008 ++to 6.63195e-008
Heightened Def Con from 6.63298e-008 +to 6.63317e-008
Heightened Def Con from 6.63317e-008 +to 6.63318e-008
Heightened Def Con from 6.63318e-008 to 6.6332e-008
Heightened Def Con from 6.6332e-008 to 6.63323e-008
Heightened Def Con from 6.63338e-008 to 6.6334e-008
Heightened Def Con from 6.6334e-008 +++to 6.63496e-008
Heightened Def Con from 6.63496e-008 to 6.63653e-008
Heightened Def Con from 6.63654e-008 +to 6.73654e-008
Heightened Def Con from 6.73669e-008 to 6.83825e-008
Heightened Def Con from 6.83826e-008 to 7.03826e-008
Heightened Def Con from 7.03826e-008 to 7.03982e-008
Heightened Def Con from 7.03983e-008 to 7.03985e-008
Heightened Def Con from 7.03985e-008 to 7.04141e-008
Heightened Def Con from 7.04566e-008 +to 7.04586e-008
Heightened Def Con from 7.04586e-008 to 7.04588e-008
Heightened Def Con from 7.04603e-008 +to 7.04759e-008
Heightened Def Con from 7.04761e-008 to 7.14763e-008
Heightened Def Con from 7.14763e-008 +++to 7.14939e-008
Heightened Def Con from 7.15056e-008 to 7.15213e-008
Heightened Def Con from 7.15213e-008 to 7.2537e-008
Heightened Def Con from 7.25711e-008 to 7.25868e-008
Heightened Def Con from 7.2618e-008 to 7.2618e-008
Heightened Def Con from 7.2618e-008 to 7.26183e-008
Heightened Def Con from 7.26183e-008 to 7.36339e-008
Heightened Def Con from 7.36339e-008 to 7.36342e-008
Heightened Def Con from 7.36343e-008 ++to 7.37613e-008
Heightened Def Con from 7.37613e-008 to 7.37769e-008
Heightened Def Con from 7.37826e-008 +to 7.37829e-008
Heightened Def Con from 7.37829e-008 ++to 7.37829e-008
Heightened Def Con from 7.37829e-008 to 7.37988e-008
Heightened Def Con from 7.37988e-008 +to 7.38164e-008
Heightened Def Con from 7.38172e-008 to 7.38348e-008
Heightened Def Con from 7.38418e-008 to 7.38421e-008
Heightened Def Con from 7.38421e-008 to 7.38577e-008
Heightened Def Con from 7.38889e-008 to 7.49046e-008
Heightened Def Con from 7.49368e-008 to 7.49388e-008
Heightened Def Con from 7.49388e-008 to 7.4939e-008
Heightened Def Con from 7.4939e-008 +to 7.49546e-008
Heightened Def Con from 7.49546e-008 to 7.49566e-008
Heightened Def Con from 7.49566e-008 +to 7.49725e-008
Heightened Def Con from 7.49725e-008 to 7.49728e-008
Heightened Def Con from 7.49729e-008 to 7.49749e-008
Heightened Def Con from 7.49782e-008 to 7.49784e-008
Heightened Def Con from 7.49784e-008 to 7.49943e-008
Heightened Def Con from 7.49943e-008 to 7.50099e-008
Heightened Def Con from 7.50412e-008 to 7.50431e-008
Heightened Def Con from 7.50431e-008 to 7.50434e-008
Heightened Def Con from 7.50434e-008 to 7.50473e-008
Heightened Def Con from 7.50478e-008 to 7.50481e-008
Heightened Def Con from 7.50481e-008 to 7.50637e-008
Heightened Def Con from 7.50642e-008 to 7.50642e-008
Heightened Def Con from 7.50642e-008 +to 7.60642e-008
Heightened Def Con from 7.60647e-008 to 7.60806e-008
Heightened Def Con from 7.6084e-008 ++to 7.60997e-008
Heightened Def Con from 7.60997e-008 +to 7.61154e-008
Heightened Def Con from 7.61154e-008 +to 7.71154e-008
Heightened Def Con from 7.71155e-008 +to 7.71155e-008
Heightened Def Con from 7.71155e-008 +to 7.71158e-008
Heightened Def Con from 7.71158e-008 to 7.71158e-008
Heightened Def Con from 7.71158e-008 to 7.71197e-008
Heightened Def Con from 7.71198e-008 +to 7.81198e-008
Heightened Def Con from 7.81198e-008 to 7.812e-008
Heightened Def Con from 7.81205e-008 to 7.81207e-008
Heightened Def Con from 7.81207e-008 to 7.81364e-008
Heightened Def Con from 7.81364e-008 +to 7.81383e-008
Heightened Def Con from 7.81383e-008 to 7.81403e-008
Heightened Def Con from 7.81403e-008 to 7.82653e-008
Heightened Def Con from 7.82653e-008 +to 7.82672e-008
Heightened Def Con from 7.82687e-008 ++to 7.82707e-008
Heightened Def Con from 7.82707e-008 +to 7.83957e-008
Heightened Def Con from 7.83957e-008 to 7.84113e-008
Heightened Def Con from 7.84118e-008 to 7.84275e-008
Heightened Def Con from 7.84275e-008 +to 7.84277e-008
Heightened Def Con from 7.84278e-008 +to 7.84434e-008
Heightened Def Con from 7.84825e-008 to 7.84827e-008
Heightened Def Con from 7.84827e-008 to 7.84829e-008
Heightened Def Con from 7.84829e-008 +to 7.84832e-008
Heightened Def Con from 7.84837e-008 +to 7.84839e-008
Heightened Def Con from 7.84854e-008 +to 7.84874e-008
Heightened Def Con from 7.84913e-008 to 7.85069e-008
Heightened Def Con from 7.85071e-008 +to 7.85071e-008
Heightened Def Con from 7.85071e-008 to 7.85247e-008
Heightened Def Con from 7.85367e-008 to 7.85367e-008
Heightened Def Con from 7.85367e-008 to 7.85386e-008
Heightened Def Con from 7.85387e-008 to 7.85699e-008
Heightened Def Con from 7.85714e-008 to 7.8587e-008
Heightened Def Con from 7.85893e-008 to 7.85893e-008
Heightened Def Con from 7.85895e-008 +to 7.86051e-008
Heightened Def Con from 7.86052e-008 to 7.86228e-008
Heightened Def Con from 7.86267e-008 to 7.86286e-008
Heightened Def Con from 7.86335e-008 +++to 7.96355e-008
Heightened Def Con from 7.96355e-008 +to 7.96511e-008
Heightened Def Con from 7.96511e-008 to 7.96531e-008
Heightened Def Con from 7.96531e-008 to 7.96532e-008
Heightened Def Con from 7.96532e-008 +to 7.96532e-008
Heightened Def Con from 7.96532e-008 to 7.96708e-008
Heightened Def Con from 7.96747e-008 to 7.96748e-008
Heightened Def Con from 7.96748e-008 to 7.9675e-008
Heightened Def Con from 7.96751e-008 +to 7.96907e-008
Heightened Def Con from 7.96907e-008 ++to 7.97063e-008
Heightened Def Con from 7.97068e-008 +to 8.07068e-008
Heightened Def Con from 8.07381e-008 +to 8.074e-008
Heightened Def Con from 8.07405e-008 to 8.07425e-008
Heightened Def Con from 8.07425e-008 to 8.17581e-008
Heightened Def Con from 8.17581e-008 to 8.18831e-008
Heightened Def Con from 8.18866e-008 +to 8.19022e-008
Heightened Def Con from 8.19074e-008 to 8.1923e-008
Heightened Def Con from 8.19244e-008 ++to 8.19401e-008
Heightened Def Con from 8.19406e-008 +to 8.19428e-008
Heightened Def Con from 8.19428e-008 +++to 8.1943e-008
Heightened Def Con from 8.1943e-008 to 8.1945e-008
Heightened Def Con from 8.19452e-008 to 8.29608e-008
Heightened Def Con from 8.2993e-008 to 8.30087e-008
Heightened Def Con from 8.30087e-008 to 8.30106e-008
Heightened Def Con from 8.3011e-008 to 8.3013e-008
Heightened Def Con from 8.30136e-008 +to 8.30292e-008
Heightened Def Con from 8.30292e-008 to 8.30312e-008
Heightened Def Con from 8.30448e-008 to 8.40605e-008
Heightened Def Con from 8.40611e-008 +to 8.50611e-008
Heightened Def Con from 8.50613e-008 to 8.50769e-008
Heightened Def Con from 8.50774e-008 to 8.50774e-008
Heightened Def Con from 8.50774e-008 +to 8.50774e-008
Heightened Def Con from 8.50774e-008 ++to 8.51087e-008
Heightened Def Con from 8.514e-008 to 8.51402e-008
Heightened Def Con from 8.51402e-008 ++to 8.51559e-008
Heightened Def Con from 8.51559e-008 to 8.51872e-008
Heightened Def Con from 8.51941e-008 +to 8.51943e-008
Heightened Def Con from 8.51947e-008 +to 8.52104e-008
Heightened Def Con from 8.52104e-008 to 8.5228e-008
Heightened Def Con from 8.52285e-008 to 8.52597e-008
Heightened Def Con from 8.5291e-008 to 8.52929e-008
Heightened Def Con from 8.52932e-008 to 8.63088e-008
Heightened Def Con from 8.63088e-008 to 8.63091e-008
Heightened Def Con from 8.63091e-008 +to 8.63093e-008
Heightened Def Con from 8.63095e-008 +to 8.63095e-008
Heightened Def Con from 8.63095e-008 +to 8.63408e-008
Heightened Def Con from 8.64516e-008 +to 8.64517e-008
Heightened Def Con from 8.64517e-008 to 8.64519e-008
Heightened Def Con from 8.6452e-008 +to 8.7452e-008
Heightened Def Con from 8.7452e-008 to 8.74676e-008
Heightened Def Con from 8.74677e-008 +to 8.74833e-008
Heightened Def Con from 8.74833e-008 to 8.74835e-008
Heightened Def Con from 8.74835e-008 to 8.74991e-008
Heightened Def Con from 8.75304e-008 to 8.75324e-008
Heightened Def Con from 8.75328e-008 ++++to 8.75331e-008
Heightened Def Con from 8.75337e-008 +to 8.75496e-008
Heightened Def Con from 8.75496e-008 to 8.75515e-008
Heightened Def Con from 8.75598e-008 to 8.75755e-008
Heightened Def Con from 8.75777e-008 to 8.75777e-008
Heightened Def Con from 8.75778e-008 to 8.85798e-008
Heightened Def Con from 8.85804e-008 +to 8.8596e-008
Heightened Def Con from 8.85978e-008 to 8.86153e-008
Heightened Def Con from 8.86167e-008 to 8.86167e-008
Heightened Def Con from 8.86167e-008 to 8.86187e-008
Heightened Def Con from 8.86187e-008 +to 8.86206e-008
Heightened Def Con from 8.86206e-008 to 8.86226e-008
Heightened Def Con from 8.86231e-008 to 8.96233e-008
Heightened Def Con from 8.96238e-008 to 8.96258e-008
Heightened Def Con from 8.96531e-008 to 8.96533e-008
Heightened Def Con from 8.96534e-008 ++to 9.06534e-008
Heightened Def Con from 9.06539e-008 +to 9.16539e-008
Heightened Def Con from 9.1693e-008 to 9.16932e-008
Heightened Def Con from 9.16932e-008 to 9.16935e-008
Heightened Def Con from 9.16935e-008 +to 9.27091e-008
Heightened Def Con from 9.27099e-008 to 9.38349e-008
Heightened Def Con from 9.38349e-008 to 9.38506e-008
Heightened Def Con from 9.38828e-008 ++to 9.38828e-008
Heightened Def Con from 9.38828e-008 to 9.38867e-008
Heightened Def Con from 9.38867e-008 +to 9.38887e-008
Heightened Def Con from 9.38892e-008 +to 9.49068e-008
Heightened Def Con from 9.49068e-008 to 9.49224e-008
Heightened Def Con from 9.49546e-008 to 9.49702e-008
Heightened Def Con from 9.49707e-008 to 9.59709e-008
Heightened Def Con from 9.59709e-008 to 9.59711e-008
Heightened Def Con from 9.59713e-008 +to 9.59714e-008
Heightened Def Con from 9.59714e-008 to 9.59716e-008
Heightened Def Con from 9.59733e-008 +to 9.59753e-008
Heightened Def Con from 9.59792e-008 +to 9.59811e-008
Heightened Def Con from 9.59914e-008 to 9.59916e-008
Heightened Def Con from 9.59916e-008 to 9.59936e-008
Heightened Def Con from 9.5995e-008 to 9.60107e-008
Heightened Def Con from 9.60264e-008 to 9.60266e-008
Heightened Def Con from 9.60266e-008 +to 9.60269e-008
Heightened Def Con from 9.60269e-008 to 9.60289e-008
Heightened Def Con from 9.60328e-008 +to 9.6033e-008
Heightened Def Con from 9.60335e-008 +to 9.60336e-008
Heightened Def Con from 9.60336e-008 ++to 9.60375e-008
Heightened Def Con from 9.6038e-008 to 9.6288e-008
Heightened Def Con from 9.6288e-008 ++to 9.63037e-008
Heightened Def Con from 9.63037e-008 +to 9.64287e-008
Heightened Def Con from 9.64292e-008 to 9.64311e-008
Heightened Def Con from 9.64351e-008 to 9.64352e-008
Heightened Def Con from 9.64352e-008 +to 9.64508e-008
Heightened Def Con from 9.64508e-008 to 9.64664e-008
Heightened Def Con from 9.64666e-008 to 9.64686e-008
Heightened Def Con from 9.6469e-008 +++to 9.64846e-008
Heightened Def Con from 9.65159e-008 to 9.75159e-008
Heightened Def Con from 9.75159e-008 +to 9.75159e-008
Heightened Def Con from 9.75159e-008 to 9.75162e-008
Heightened Def Con from 9.75162e-008 to 9.85318e-008
Heightened Def Con from 9.85391e-008 +to 9.85394e-008
Heightened Def Con from 9.85398e-008 +to 9.85555e-008
Heightened Def Con from 9.85868e-008 to 9.86025e-008
Heightened Def Con from 9.86073e-008 to 9.8623e-008
Heightened Def Con from 9.8623e-008 +to 9.86249e-008
Heightened Def Con from 9.86255e-008 to 9.86258e-008
Heightened Def Con from 9.86263e-008 to 9.86282e-008
Heightened Def Con from 9.86287e-008 +to 9.8754e-008
Heightened Def Con from 9.8754e-008 ++to 9.87696e-008
Heightened Def Con from 9.87732e-008 ++to 9.87734e-008
Heightened Def Con from 9.87734e-008 to 9.87754e-008
Heightened Def Con from 9.87871e-008 +to 9.8789e-008
Heightened Def Con from 9.87905e-008 to 9.87925e-008
Heightened Def Con from 9.87939e-008 to 9.88096e-008
Heightened Def Con from 9.88096e-008 to 9.88252e-008
Heightened Def Con from 9.88369e-008 to 9.88369e-008
Heightened Def Con from 9.88369e-008 +to 9.98372e-008
Heightened Def Con from 9.98372e-008 +to 9.98684e-008
Heightened Def Con from 9.9869e-008 to 9.98693e-008
Heightened Def Con from 9.98693e-008 +to 9.98849e-008
Heightened Def Con from 9.9885e-008 +to 9.9887e-008
Heightened Def Con from 9.9887e-008 +to 9.99027e-008
Heightened Def Con from 9.99067e-008 +++to 9.99243e-008
Heightened Def Con from 9.9935e-008 to 9.9937e-008
Heightened Def Con from 9.99506e-008 to 9.99526e-008
Heightened Def Con from 9.99526e-008 to 9.99546e-008
Heightened Def Con from 9.99585e-008 to 9.99604e-008
Heightened Def Con from 9.99609e-008 +to 9.99765e-008
Heightened Def Con from 9.99765e-008 to 9.99766e-008
Heightened Def Con from 9.99767e-008 to 9.9977e-008
Heightened Def Con from 9.99775e-008 +to 9.99794e-008
Heightened Def Con from 9.99794e-008 to 9.9995e-008
Heightened Def Con from 1.00028e-007 +to 1.00043e-007
Heightened Def Con from 1.00075e-007 to 1.0109e-007
Heightened Def Con from 1.01091e-007 to 1.01106e-007
Heightened Def Con from 1.01108e-007 to 1.01108e-007
Heightened Def Con from 1.01108e-007 to 1.0111e-007
Heightened Def Con from 1.0111e-007 to 1.01126e-007
Heightened Def Con from 1.01172e-007 +to 1.01174e-007
Heightened Def Con from 1.01174e-007 ++to 1.0119e-007
Heightened Def Con from 1.0119e-007 to 1.02192e-007
Heightened Def Con from 1.02196e-007 to 1.02211e-007
Heightened Def Con from 1.02213e-007 to 1.02228e-007
Heightened Def Con from 1.02228e-007 to 1.02244e-007
Heightened Def Con from 1.02278e-007 to 1.02278e-007
Heightened Def Con from 1.02278e-007 +to 1.02296e-007
Heightened Def Con from 1.02311e-007 +to 1.02313e-007
Heightened Def Con from 1.02314e-007 to 1.0333e-007
Heightened Def Con from 1.03363e-007 to 1.03364e-007
Heightened Def Con from 1.03369e-007 to 1.03385e-007
Heightened Def Con from 1.03385e-007 to 1.03401e-007
Heightened Def Con from 1.03401e-007 ++to 1.04401e-007
Heightened Def Con from 1.04401e-007 to 1.04417e-007
Heightened Def Con from 1.04417e-007 +to 1.04417e-007
Heightened Def Con from 1.04417e-007 ++to 1.04432e-007
Heightened Def Con from 1.04432e-007 to 1.04434e-007
Heightened Def Con from 1.04435e-007 to 1.04451e-007
Heightened Def Con from 1.04451e-007 +to 1.04453e-007
Heightened Def Con from 1.04453e-007 +to 1.05453e-007
Heightened Def Con from 1.05453e-007 +to 1.05453e-007
Heightened Def Con from 1.05461e-007 to 1.05461e-007
Heightened Def Con from 1.05461e-007 +++to 1.05463e-007
Heightened Def Con from 1.05464e-007 to 1.05466e-007
Heightened Def Con from 1.05467e-007 to 1.05467e-007
Heightened Def Con from 1.0547e-007 to 1.0547e-007
Heightened Def Con from 1.0547e-007 +++to 1.0547e-007
Heightened Def Con from 1.0547e-007 to 1.05471e-007
Heightened Def Con from 1.05471e-007 to 1.05486e-007
Heightened Def Con from 1.05486e-007 +to 1.05488e-007
Heightened Def Con from 1.05494e-007 ++to 1.06494e-007
Heightened Def Con from 1.06494e-007 to 1.06494e-007
Heightened Def Con from 1.06494e-007 to 1.06494e-007
Heightened Def Con from 1.06494e-007 +++to 1.07494e-007
Heightened Def Con from 1.07495e-007 to 1.07495e-007
Heightened Def Con from 1.07495e-007 to 1.07497e-007
Heightened Def Con from 1.07501e-007 to 1.07503e-007
Heightened Def Con from 1.07507e-007 +to 1.07507e-007
Heightened Def Con from 1.07507e-007 ++to 1.07511e-007
Heightened Def Con from 1.07515e-007 to 1.07515e-007
Heightened Def Con from 1.07515e-007 to 1.07531e-007
Heightened Def Con from 1.07531e-007 +to 1.07546e-007
Heightened Def Con from 1.0758e-007 ++to 1.0758e-007
Heightened Def Con from 1.0758e-007 +to 1.07583e-007
Heightened Def Con from 1.07588e-007 to 1.07588e-007
Heightened Def Con from 1.07588e-007 ++to 1.08603e-007
Heightened Def Con from 1.08603e-007 to 1.08603e-007
Heightened Def Con from 1.08603e-007 +to 1.08619e-007
Heightened Def Con from 1.08619e-007 to 1.08621e-007
Heightened Def Con from 1.08629e-007 to 1.08644e-007
Heightened Def Con from 1.08645e-007 to 1.08645e-007
Heightened Def Con from 1.08645e-007 to 1.08677e-007
Heightened Def Con from 1.08677e-007 +to 1.08692e-007
Heightened Def Con from 1.08692e-007 to 1.08692e-007
Heightened Def Con from 1.08692e-007 to 1.08692e-007
Heightened Def Con from 1.08692e-007 to 1.0871e-007
Heightened Def Con from 1.0871e-007 to 1.08712e-007
Heightened Def Con from 1.08718e-007 to 1.08718e-007
Heightened Def Con from 1.08719e-007 to 1.08721e-007
Heightened Def Con from 1.08721e-007 +to 1.09721e-007
Heightened Def Con from 1.09725e-007 ++to 1.09727e-007
Heightened Def Con from 1.09731e-007 +to 1.09733e-007
Heightened Def Con from 1.09733e-007 +to 1.10733e-007
Heightened Def Con from 1.17734e-007 +to 1.17734e-007
Heightened Def Con from 1.17734e-007 +to 1.17734e-007
Heightened Def Con from 1.17734e-007 to 1.17736e-007
Heightened Def Con from 1.17737e-007 to 1.17737e-007
Heightened Def Con from 1.17737e-007 to 1.17739e-007
Heightened Def Con from 1.1774e-007 +to 1.17865e-007
Heightened Def Con from 1.17866e-007 to 1.17868e-007
Heightened Def Con from 1.17872e-007 +to 1.18873e-007
Heightened Def Con from 1.18873e-007 to 1.1889e-007
Heightened Def Con from 1.18894e-007 to 1.18896e-007
Heightened Def Con from 1.18896e-007 to 1.18912e-007
Heightened Def Con from 1.18912e-007 +to 1.18912e-007
Heightened Def Con from 1.18912e-007 to 1.18914e-007
Heightened Def Con from 1.18914e-007 to 1.18914e-007
Heightened Def Con from 1.18914e-007 +to 1.18916e-007
Heightened Def Con from 1.18917e-007 +to 1.19917e-007
Heightened Def Con from 1.19917e-007 ++to 1.19917e-007
Heightened Def Con from 1.19917e-007 to 1.19933e-007
Heightened Def Con from 1.20021e-007 to 1.20021e-007
Heightened Def Con from 1.20022e-007 ++to 1.21037e-007
Heightened Def Con from 1.2107e-007 to 1.2107e-007
Heightened Def Con from 1.2107e-007 to 1.21072e-007
Heightened Def Con from 1.21075e-007 to 1.21093e-007
Heightened Def Con from 1.21097e-007 to 1.21224e-007
Heightened Def Con from 1.21224e-007 to 1.21226e-007
Heightened Def Con from 1.21226e-007 to 1.21226e-007
Heightened Def Con from 1.21227e-007 +to 1.21229e-007
Heightened Def Con from 1.2126e-007 to 1.21275e-007
Heightened Def Con from 1.21276e-007 +to 1.21292e-007
Heightened Def Con from 1.21292e-007 to 1.21307e-007
Heightened Def Con from 1.21307e-007 +to 1.22309e-007
Heightened Def Con from 1.22309e-007 +to 1.22311e-007
Heightened Def Con from 1.22323e-007 to 1.22338e-007
Heightened Def Con from 1.22338e-007 to 1.22354e-007
Heightened Def Con from 1.22366e-007 to 1.24366e-007
Heightened Def Con from 1.24367e-007 to 1.24368e-007
Heightened Def Con from 1.24368e-007 to 1.24368e-007
Heightened Def Con from 1.24368e-007 +to 1.24369e-007
Heightened Def Con from 1.24369e-007 to 1.24385e-007
Heightened Def Con from 1.24385e-007 +++to 1.24385e-007
Heightened Def Con from 1.24385e-007 to 1.24385e-007
Heightened Def Con from 1.24385e-007 +to 1.24403e-007
Heightened Def Con from 1.24437e-007 to 1.24439e-007
Heightened Def Con from 1.24444e-007 to 1.24446e-007
Heightened Def Con from 1.24457e-007 +to 1.25457e-007
Heightened Def Con from 1.25458e-007 to 1.25474e-007
Heightened Def Con from 1.25474e-007 to 1.26474e-007
Heightened Def Con from 1.26474e-007 to 1.2749e-007
Heightened Def Con from 1.2749e-007 to 1.28491e-007
Heightened Def Con from 1.28491e-007 to 1.29493e-007
Heightened Def Con from 1.29493e-007 ++to 1.29495e-007
Heightened Def Con from 1.29495e-007 to 1.29497e-007
Heightened Def Con from 1.29497e-007 to 1.31497e-007
Heightened Def Con from 1.33498e-007 to 1.33514e-007
Heightened Def Con from 1.33514e-007 to 1.33639e-007
Heightened Def Con from 1.33639e-007 to 1.33641e-007
Heightened Def Con from 1.33641e-007 to 1.33641e-007
Heightened Def Con from 1.33642e-007 to 1.33658e-007
Heightened Def Con from 1.33689e-007 to 1.33705e-007
Heightened Def Con from 1.33706e-007 to 1.33706e-007
Heightened Def Con from 1.33706e-007 to 1.33708e-007
Heightened Def Con from 1.33712e-007 to 1.33712e-007
Heightened Def Con from 1.33712e-007 to 1.34728e-007
Heightened Def Con from 1.34728e-007 to 1.34728e-007
Heightened Def Con from 1.34728e-007 to 1.34869e-007
Heightened Def Con from 1.34869e-007 +to 1.35869e-007
Heightened Def Con from 1.36628e-007 ++++to 1.38628e-007
Heightened Def Con from 1.38629e-007 +to 1.38631e-007
Heightened Def Con from 1.38633e-007 to 1.38633e-007
Heightened Def Con from 1.38633e-007 to 1.38633e-007
Heightened Def Con from 1.38633e-007 +to 1.38633e-007
Heightened Def Con from 1.38633e-007 to 1.38635e-007
Heightened Def Con from 1.38635e-007 +to 1.38651e-007
Heightened Def Con from 1.38651e-007 to 1.38653e-007
Heightened Def Con from 1.38653e-007 +to 1.38669e-007
Heightened Def Con from 1.38669e-007 to 1.38669e-007
Heightened Def Con from 1.38669e-007 +to 1.38669e-007
Heightened Def Con from 1.38669e-007 to 1.38671e-007
Heightened Def Con from 1.38678e-007 to 1.38678e-007
Heightened Def Con from 1.38678e-007 to 1.38696e-007
Heightened Def Con from 1.38696e-007 to 1.38698e-007
Heightened Def Con from 1.38698e-007 +to 1.39698e-007
Heightened Def Con from 1.39702e-007 +to 1.39717e-007
Heightened Def Con from 1.39749e-007 to 1.3975e-007
Heightened Def Con from 1.3975e-007 to 1.39754e-007
Heightened Def Con from 1.39754e-007 +to 1.39769e-007
Heightened Def Con from 1.39773e-007 to 1.39773e-007
Heightened Def Con from 1.39773e-007 ++to 1.39775e-007
Heightened Def Con from 1.39775e-007 to 1.39777e-007
Heightened Def Con from 1.39782e-007 to 1.40798e-007
Heightened Def Con from 1.40798e-007 ++to 1.40814e-007
Heightened Def Con from 1.40817e-007 to 1.40819e-007
Heightened Def Con from 1.40819e-007 to 1.41835e-007
Heightened Def Con from 1.41847e-007 to 1.41878e-007
Heightened Def Con from 1.41882e-007 to 1.41898e-007
Heightened Def Con from 1.41898e-007 +to 1.41899e-007
Heightened Def Con from 1.419e-007 +to 1.429e-007
Heightened Def Con from 1.429e-007 +to 1.42917e-007
Heightened Def Con from 1.42917e-007 to 1.42917e-007
Heightened Def Con from 1.42917e-007 +to 1.42933e-007
Heightened Def Con from 1.42965e-007 to 1.42967e-007
Heightened Def Con from 1.42968e-007 +to 1.4297e-007
Heightened Def Con from 1.42974e-007 +++to 1.42976e-007
Heightened Def Con from 1.4298e-007 to 1.4298e-007
Heightened Def Con from 1.4298e-007 +to 1.42998e-007
Heightened Def Con from 1.43e-007 to 1.43e-007
Heightened Def Con from 1.43e-007 to 1.43016e-007
Heightened Def Con from 1.43017e-007 to 1.43017e-007
Heightened Def Con from 1.43017e-007 +to 1.43142e-007
Heightened Def Con from 1.43142e-007 to 1.43143e-007
Heightened Def Con from 1.43144e-007 to 1.43146e-007
Heightened Def Con from 1.43158e-007 +to 1.43158e-007
Heightened Def Con from 1.43158e-007 +to 1.43174e-007
Heightened Def Con from 1.43174e-007 to 1.43176e-007
Heightened Def Con from 1.43176e-007 +to 1.43178e-007
Heightened Def Con from 1.43179e-007 to 1.44195e-007
Heightened Def Con from 1.44195e-007 +to 1.44199e-007
Heightened Def Con from 1.44201e-007 to 1.44203e-007
Heightened Def Con from 1.4421e-007 to 1.44225e-007
Heightened Def Con from 1.44226e-007 +to 1.44226e-007
Heightened Def Con from 1.44226e-007 to 1.44226e-007
Heightened Def Con from 1.44226e-007 to 1.44226e-007
Heightened Def Con from 1.44227e-007 to 1.44258e-007
Heightened Def Con from 1.44258e-007 to 1.45258e-007
Heightened Def Con from 1.45258e-007 +to 1.45258e-007
Heightened Def Con from 1.45258e-007 +to 1.46274e-007
Heightened Def Con from 1.46275e-007 to 1.46277e-007
Heightened Def Con from 1.46277e-007 to 1.46292e-007
Heightened Def Con from 1.46386e-007 +to 1.46388e-007
Heightened Def Con from 1.46395e-007 +to 1.46411e-007
Heightened Def Con from 1.46414e-007 ++to 1.47414e-007
Heightened Def Con from 1.47664e-007 to 1.47666e-007
Heightened Def Con from 1.47667e-007 to 1.47667e-007
Heightened Def Con from 1.47667e-007 to 1.47698e-007
Heightened Def Con from 1.47729e-007 ++to 1.47731e-007
Heightened Def Con from 1.47734e-007 to 1.47765e-007
Heightened Def Con from 1.47765e-007 to 1.47781e-007
Heightened Def Con from 1.47808e-007 +to 1.47824e-007
Heightened Def Con from 1.47824e-007 to 1.47824e-007
Heightened Def Con from 1.47826e-007 +to 1.47828e-007
Heightened Def Con from 1.47838e-007 to 1.4784e-007
Heightened Def Con from 1.4784e-007 to 1.47856e-007
Heightened Def Con from 1.4789e-007 +to 1.48892e-007
Heightened Def Con from 1.48892e-007 +to 1.48894e-007
Heightened Def Con from 1.48895e-007 to 1.48895e-007
Heightened Def Con from 1.48902e-007 to 1.49918e-007
Heightened Def Con from 1.49918e-007 to 1.4992e-007
Heightened Def Con from 1.49924e-007 to 1.51924e-007
Heightened Def Con from 1.51924e-007 to 1.51928e-007
Heightened Def Con from 1.51929e-007 to 1.51931e-007
Heightened Def Con from 1.51931e-007 +to 1.51931e-007
Heightened Def Con from 1.51934e-007 ++to 1.52936e-007
Heightened Def Con from 1.52937e-007 +to 1.52968e-007
Heightened Def Con from 1.52968e-007 +to 1.52968e-007
Heightened Def Con from 1.52969e-007 to 1.52971e-007
Heightened Def Con from 1.52998e-007 to 1.53e-007
Heightened Def Con from 1.53001e-007 to 1.53002e-007
Heightened Def Con from 1.53002e-007 to 1.53018e-007
Heightened Def Con from 1.53021e-007 to 1.53023e-007
Heightened Def Con from 1.53023e-007 +to 1.55023e-007
Heightened Def Con from 1.55023e-007 +++to 1.56023e-007
Heightened Def Con from 1.56023e-007 to 1.56023e-007
Heightened Def Con from 1.56023e-007 to 1.56023e-007
Heightened Def Con from 1.56023e-007 to 1.56039e-007
Heightened Def Con from 1.56039e-007 to 1.57039e-007
Heightened Def Con from 1.57039e-007 to 1.58055e-007
Heightened Def Con from 1.58067e-007 +to 1.59067e-007
Heightened Def Con from 1.59067e-007 +++to 1.59082e-007
Heightened Def Con from 1.59082e-007 +++to 1.59084e-007
Heightened Def Con from 1.59085e-007 ++to 1.59085e-007
Heightened Def Con from 1.59085e-007 +to 1.59101e-007
Heightened Def Con from 1.59101e-007 ++to 1.59116e-007
Heightened Def Con from 1.59117e-007 +++to 1.59117e-007
Heightened Def Con from 1.59117e-007 to 1.59117e-007
Heightened Def Con from 1.59117e-007 +to 1.60242e-007
Heightened Def Con from 1.60246e-007 to 1.60246e-007
Heightened Def Con from 1.60246e-007 to 1.60262e-007
Heightened Def Con from 1.60262e-007 to 1.60262e-007
Heightened Def Con from 1.60262e-007 +to 1.61278e-007
Heightened Def Con from 1.61309e-007 to 1.62434e-007
Heightened Def Con from 1.62435e-007 to 1.62435e-007
Heightened Def Con from 1.62435e-007 to 1.62437e-007
Heightened Def Con from 1.62456e-007 to 1.62458e-007
Heightened Def Con from 1.62458e-007 to 1.62458e-007
Heightened Def Con from 1.62458e-007 to 1.62489e-007
Heightened Def Con from 1.62489e-007 to 1.62491e-007
Heightened Def Con from 1.62491e-007 to 1.62493e-007
Heightened Def Con from 1.62494e-007 +++to 1.6251e-007
Heightened Def Con from 1.6251e-007 +to 1.6251e-007
Heightened Def Con from 1.6251e-007 to 1.6351e-007
Heightened Def Con from 1.6351e-007 to 1.6351e-007
Heightened Def Con from 1.6351e-007 +to 1.6551e-007
Heightened Def Con from 1.65513e-007 ++to 1.65529e-007
Heightened Def Con from 1.65529e-007 to 1.65545e-007
Heightened Def Con from 1.65549e-007 to 1.66549e-007
Heightened Def Con from 1.66549e-007 +to 1.66551e-007
Heightened Def Con from 1.66551e-007 to 1.66553e-007
Heightened Def Con from 1.66554e-007 to 1.66554e-007
Heightened Def Con from 1.66554e-007 to 1.66554e-007
Heightened Def Con from 1.66554e-007 to 1.66554e-007
Heightened Def Con from 1.66554e-007 to 1.66556e-007
Heightened Def Con from 1.66556e-007 +to 1.66572e-007
Heightened Def Con from 1.66584e-007 to 1.66586e-007
Heightened Def Con from 1.66586e-007 +to 1.66601e-007
Heightened Def Con from 1.66601e-007 +to 1.66617e-007
Heightened Def Con from 1.66617e-007 ++to 1.66632e-007
Heightened Def Con from 1.66643e-007 to 1.66644e-007
Heightened Def Con from 1.66644e-007 to 1.66644e-007
Heightened Def Con from 1.66644e-007 to 1.66661e-007
Heightened Def Con from 1.66666e-007 to 1.66682e-007
Heightened Def Con from 1.66683e-007 to 1.66685e-007
Heightened Def Con from 1.66685e-007 to 1.67687e-007
Heightened Def Con from 1.67688e-007 +to 1.67703e-007
Heightened Def Con from 1.67707e-007 +to 1.67707e-007
Heightened Def Con from 1.67707e-007 to 1.67709e-007
Heightened Def Con from 1.67709e-007 +to 1.67711e-007
Heightened Def Con from 1.67715e-007 +to 1.68731e-007
Heightened Def Con from 1.68731e-007 +to 1.68747e-007
Heightened Def Con from 1.68749e-007 +to 1.69749e-007
Heightened Def Con from 1.6975e-007 to 1.6975e-007
Heightened Def Con from 1.6975e-007 to 1.6975e-007
Heightened Def Con from 1.6975e-007 +to 1.69751e-007
Heightened Def Con from 1.69751e-007 to 1.69753e-007
Heightened Def Con from 1.69753e-007 to 1.69755e-007
Heightened Def Con from 1.69755e-007 to 1.69773e-007
Heightened Def Con from 1.69773e-007 +to 1.69775e-007
Heightened Def Con from 1.69775e-007 to 1.69775e-007
Heightened Def Con from 1.69775e-007 +to 1.69775e-007
Heightened Def Con from 1.69775e-007 +to 1.69775e-007
Heightened Def Con from 1.69775e-007 to 1.69791e-007
Heightened Def Con from 1.69791e-007 to 1.69808e-007
Heightened Def Con from 1.69809e-007 to 1.69809e-007
Heightened Def Con from 1.69809e-007 to 1.69811e-007
Heightened Def Con from 1.69811e-007 to 1.69813e-007
Heightened Def Con from 1.69813e-007 to 1.6994e-007
Heightened Def Con from 1.6994e-007 to 1.69942e-007
Heightened Def Con from 1.69949e-007 +++to 1.7095e-007
Heightened Def Con from 1.7095e-007 to 1.7095e-007
Heightened Def Con from 1.70951e-007 to 1.70953e-007
Heightened Def Con from 1.70953e-007 +to 1.7097e-007
Heightened Def Con from 1.7097e-007 +to 1.70986e-007
Heightened Def Con from 1.71017e-007 to 1.71019e-007
Heightened Def Con from 1.7102e-007 to 1.7102e-007
Heightened Def Con from 1.7102e-007 +to 1.72051e-007
Heightened Def Con from 1.72093e-007 to 1.72095e-007
Heightened Def Con from 1.72099e-007 +to 1.72099e-007
Heightened Def Con from 1.72099e-007 to 1.72101e-007
Heightened Def Con from 1.72105e-007 to 1.7212e-007
Heightened Def Con from 1.72125e-007 to 1.72127e-007
Heightened Def Con from 1.72127e-007 ++to 1.72127e-007
Heightened Def Con from 1.72127e-007 ++to 1.72129e-007
Heightened Def Con from 1.7213e-007 to 1.72132e-007
Heightened Def Con from 1.72132e-007 to 1.72148e-007
Heightened Def Con from 1.72179e-007 to 1.72179e-007
Heightened Def Con from 1.72179e-007 +to 1.72181e-007
Heightened Def Con from 1.72181e-007 ++to 1.72181e-007
Heightened Def Con from 1.72182e-007 to 1.72184e-007
Heightened Def Con from 1.72184e-007 +to 1.72184e-007
Heightened Def Con from 1.72184e-007 +to 1.722e-007
Heightened Def Con from 1.722e-007 to 1.72202e-007
Heightened Def Con from 1.72205e-007 to 1.72221e-007
Heightened Def Con from 1.72221e-007 +to 1.72223e-007
Heightened Def Con from 1.72227e-007 +to 1.72243e-007
Heightened Def Con from 1.72243e-007 to 1.72243e-007
Heightened Def Con from 1.72243e-007 to 1.73259e-007
Heightened Def Con from 1.73259e-007 +to 1.7326e-007
Heightened Def Con from 1.7326e-007 +to 1.73262e-007
Heightened Def Con from 1.73262e-007 to 1.73262e-007
Heightened Def Con from 1.73262e-007 to 1.73264e-007
Heightened Def Con from 1.73264e-007 +to 1.73264e-007
Heightened Def Con from 1.73264e-007 +to 1.73266e-007
Heightened Def Con from 1.73268e-007 to 1.73283e-007
Heightened Def Con from 1.73283e-007 to 1.73284e-007
Heightened Def Con from 1.73284e-007 to 1.73284e-007
Heightened Def Con from 1.73284e-007 to 1.73288e-007
Heightened Def Con from 1.73288e-007 +to 1.73413e-007
Heightened Def Con from 1.73413e-007 to 1.73413e-007
Heightened Def Con from 1.73413e-007 ++to 1.73413e-007
Heightened Def Con from 1.73428e-007 +to 1.73444e-007
Heightened Def Con from 1.73444e-007 +to 1.7346e-007
Heightened Def Con from 1.73501e-007 +++to 1.73503e-007
Heightened Def Con from 1.73503e-007 to 1.73505e-007
Heightened Def Con from 1.7351e-007 to 1.73512e-007
Heightened Def Con from 1.73512e-007 to 1.74514e-007
Heightened Def Con from 1.74514e-007 +to 1.7453e-007
Heightened Def Con from 1.74561e-007 to 1.74577e-007
Heightened Def Con from 1.74577e-007 to 1.74592e-007
Heightened Def Con from 1.74592e-007 to 1.74593e-007
Heightened Def Con from 1.74593e-007 +to 1.75593e-007
Heightened Def Con from 1.75593e-007 +++to 1.76593e-007
Heightened Def Con from 1.76593e-007 to 1.76595e-007
Heightened Def Con from 1.76596e-007 to 1.77611e-007
Heightened Def Con from 1.77611e-007 to 1.77612e-007
Heightened Def Con from 1.77612e-007 to 1.77612e-007
Heightened Def Con from 1.77612e-007 to 1.78628e-007
Heightened Def Con from 1.78632e-007 +to 1.78634e-007
Heightened Def Con from 1.78635e-007 to 1.78651e-007
Heightened Def Con from 1.78651e-007 to 1.78651e-007
Heightened Def Con from 1.78651e-007 to 1.78653e-007
Heightened Def Con from 1.78657e-007 to 1.78659e-007
Heightened Def Con from 1.78659e-007 to 1.79659e-007
Heightened Def Con from 1.79659e-007 to 1.79661e-007
Heightened Def Con from 1.79665e-007 to 1.79665e-007
Heightened Def Con from 1.79665e-007 ++to 1.79666e-007
Heightened Def Con from 1.79666e-007 to 1.79667e-007
Heightened Def Con from 1.79668e-007 +to 1.79686e-007
Heightened Def Con from 1.79699e-007 +to 1.80715e-007
Heightened Def Con from 1.80716e-007 +to 1.80732e-007
Heightened Def Con from 1.80732e-007 to 1.80734e-007
Heightened Def Con from 1.80737e-007 to 1.81753e-007
Heightened Def Con from 1.81792e-007 to 1.81794e-007
Heightened Def Con from 1.81795e-007 to 1.81797e-007
Heightened Def Con from 1.81801e-007 +to 1.81817e-007
Heightened Def Con from 1.81848e-007 +to 1.81849e-007
Heightened Def Con from 1.81849e-007 +to 1.82849e-007
Heightened Def Con from 1.82849e-007 +to 1.82865e-007
Heightened Def Con from 1.82896e-007 to 1.82896e-007
Heightened Def Con from 1.82897e-007 to 1.82912e-007
Heightened Def Con from 1.82914e-007 to 1.82914e-007
Heightened Def Con from 1.82914e-007 to 1.82915e-007
Heightened Def Con from 1.82915e-007 to 1.83931e-007
Heightened Def Con from 1.83931e-007 +to 1.83946e-007
Heightened Def Con from 1.83978e-007 to 1.8398e-007
Heightened Def Con from 1.8398e-007 to 1.83996e-007
Heightened Def Con from 1.83996e-007 to 1.84121e-007
Heightened Def Con from 1.84121e-007 +++to 1.84125e-007
Heightened Def Con from 1.84125e-007 to 1.84127e-007
Heightened Def Con from 1.84127e-007 +to 1.84131e-007
Heightened Def Con from 1.84142e-007 to 1.84142e-007
Heightened Def Con from 1.84142e-007 +to 1.85142e-007
Heightened Def Con from 1.85142e-007 to 1.85142e-007
Heightened Def Con from 1.85142e-007 to 1.85142e-007
Heightened Def Con from 1.85143e-007 to 1.85143e-007
Heightened Def Con from 1.85143e-007 +++to 1.85159e-007
Heightened Def Con from 1.8519e-007 +to 1.85192e-007
Heightened Def Con from 1.85196e-007 to 1.85212e-007
Heightened Def Con from 1.85223e-007 +to 1.86224e-007
Heightened Def Con from 1.86224e-007 to 1.86255e-007
Heightened Def Con from 1.86255e-007 to 1.86256e-007
Heightened Def Con from 1.86257e-007 +to 1.87257e-007
Heightened Def Con from 1.87258e-007 to 1.88258e-007
Heightened Def Con from 1.88258e-007 +to 1.88258e-007
Heightened Def Con from 1.88258e-007 to 1.88258e-007
Heightened Def Con from 1.88258e-007 to 1.88258e-007
Heightened Def Con from 1.88259e-007 to 1.88259e-007
Heightened Def Con from 1.88259e-007 to 1.88261e-007
Heightened Def Con from 1.88261e-007 to 1.88261e-007
Heightened Def Con from 1.88262e-007 +to 1.88264e-007
Heightened Def Con from 1.88264e-007 to 1.89279e-007
Heightened Def Con from 1.8928e-007 to 1.89282e-007
Heightened Def Con from 1.89282e-007 to 1.89297e-007
Heightened Def Con from 1.89297e-007 to 1.89297e-007
Heightened Def Con from 1.89297e-007 +to 1.90422e-007
Heightened Def Con from 1.90426e-007 ++to 1.90428e-007
Heightened Def Con from 1.90429e-007 to 1.90429e-007
Heightened Def Con from 1.90429e-007 to 1.91445e-007
Heightened Def Con from 1.91445e-007 to 1.91445e-007
Heightened Def Con from 1.91445e-007 to 1.9146e-007
Heightened Def Con from 1.91465e-007 +to 1.9148e-007
Heightened Def Con from 1.91485e-007 to 1.91486e-007
Heightened Def Con from 1.91486e-007 +++to 1.91486e-007
Heightened Def Con from 1.91486e-007 to 1.91502e-007
Heightened Def Con from 1.9152e-007 to 1.91536e-007
Heightened Def Con from 1.91536e-007 to 1.91537e-007
Heightened Def Con from 1.9154e-007 +to 1.9254e-007
Heightened Def Con from 1.92541e-007 +to 1.92556e-007
Heightened Def Con from 1.92568e-007 +to 1.92584e-007
Heightened Def Con from 1.92584e-007 +to 1.926e-007
Heightened Def Con from 1.92631e-007 +to 1.92646e-007
Heightened Def Con from 1.92648e-007 to 1.92648e-007
Heightened Def Con from 1.92649e-007 +to 1.93649e-007
Heightened Def Con from 1.939e-007 to 1.93902e-007
Heightened Def Con from 1.93902e-007 to 1.93917e-007
Heightened Def Con from 1.93918e-007 to 1.93918e-007
Heightened Def Con from 1.93919e-007 to 1.9392e-007
Heightened Def Con from 1.9392e-007 to 1.93922e-007
Heightened Def Con from 1.93925e-007 to 1.93927e-007
Heightened Def Con from 1.93928e-007 +to 1.94928e-007
Heightened Def Con from 1.94928e-007 to 1.95055e-007
Heightened Def Con from 1.95066e-007 to 1.96067e-007
Heightened Def Con from 1.96067e-007 to 1.96084e-007
Heightened Def Con from 1.96084e-007 ++to 1.96102e-007
Heightened Def Con from 1.96102e-007 to 1.96102e-007
Heightened Def Con from 1.96102e-007 ++to 1.96104e-007
Heightened Def Con from 1.96108e-007 to 1.96124e-007
Heightened Def Con from 1.9616e-007 to 1.9616e-007
Heightened Def Con from 1.9616e-007 to 1.9616e-007
Heightened Def Con from 1.9616e-007 +to 1.96161e-007
Heightened Def Con from 1.96161e-007 to 1.96161e-007
Heightened Def Con from 1.96161e-007 to 1.96163e-007
Heightened Def Con from 1.96167e-007 to 1.96167e-007
Heightened Def Con from 1.96167e-007 +to 1.96169e-007
Heightened Def Con from 1.9617e-007 to 1.9817e-007
Heightened Def Con from 2.04217e-007 to 2.05232e-007
Heightened Def Con from 2.05236e-007 to 2.07236e-007
Heightened Def Con from 2.07236e-007 ++to 2.07237e-007
Heightened Def Con from 2.07237e-007 to 2.09237e-007
Heightened Def Con from 2.09237e-007 +to 2.09253e-007
Heightened Def Con from 2.09284e-007 to 2.09286e-007
Heightened Def Con from 2.09286e-007 to 2.09286e-007
Heightened Def Con from 2.09288e-007 to 2.09288e-007
Heightened Def Con from 2.09289e-007 to 2.09304e-007
Heightened Def Con from 2.09335e-007 to 2.09336e-007
Heightened Def Con from 2.09336e-007 to 2.09351e-007
Heightened Def Con from 2.09351e-007 ++to 2.09367e-007
Heightened Def Con from 2.09398e-007 +to 2.09398e-007
Heightened Def Con from 2.094e-007 +to 2.104e-007
Heightened Def Con from 2.104e-007 +to 2.10418e-007
Heightened Def Con from 2.10449e-007 to 2.10449e-007
Heightened Def Con from 2.10449e-007 to 2.11449e-007
Heightened Def Con from 2.11449e-007 to 2.12465e-007
Heightened Def Con from 2.12469e-007 to 2.13471e-007
Heightened Def Con from 2.13476e-007 to 2.13478e-007
Heightened Def Con from 2.13479e-007 to 2.13479e-007
Heightened Def Con from 2.13479e-007 to 2.13479e-007
Heightened Def Con from 2.1348e-007 to 2.13495e-007
Heightened Def Con from 2.13534e-007 ++to 2.1355e-007
Heightened Def Con from 2.13551e-007 to 2.13553e-007
Heightened Def Con from 2.13553e-007 to 2.13553e-007
Heightened Def Con from 2.13553e-007 to 2.13554e-007
Heightened Def Con from 2.13555e-007 to 2.13555e-007
Heightened Def Con from 2.13555e-007 to 2.13555e-007
Heightened Def Con from 2.13555e-007 to 2.13571e-007
Heightened Def Con from 2.13571e-007 to 2.13573e-007
Heightened Def Con from 2.13574e-007 +++to 2.1359e-007
Heightened Def Con from 2.13619e-007 to 2.13634e-007
Heightened Def Con from 2.13637e-007 to 2.13638e-007
Heightened Def Con from 2.13638e-007 to 2.13638e-007
Heightened Def Con from 2.13638e-007 to 2.13654e-007
Heightened Def Con from 2.13674e-007 to 2.13674e-007
Heightened Def Con from 2.13674e-007 to 2.13674e-007
Heightened Def Con from 2.13674e-007 +to 2.1369e-007
Heightened Def Con from 2.1369e-007 to 2.1369e-007
Heightened Def Con from 2.1369e-007 to 2.13692e-007
Heightened Def Con from 2.13692e-007 to 2.13708e-007
Heightened Def Con from 2.13746e-007 to 2.13746e-007
Heightened Def Con from 2.13746e-007 +to 2.13762e-007
Heightened Def Con from 2.13769e-007 to 2.13785e-007
Heightened Def Con from 2.13788e-007 to 2.13789e-007
Heightened Def Con from 2.13789e-007 to 2.14791e-007
Heightened Def Con from 2.14791e-007 to 2.14791e-007
Heightened Def Con from 2.14791e-007 ++to 2.16791e-007
Heightened Def Con from 2.16791e-007 to 2.16809e-007
Heightened Def Con from 2.16809e-007 to 2.16825e-007
Heightened Def Con from 2.16825e-007 +to 2.16842e-007
Heightened Def Con from 2.16842e-007 to 2.16842e-007
Heightened Def Con from 2.16842e-007 to 2.16843e-007
Heightened Def Con from 2.16843e-007 to 2.16859e-007
Heightened Def Con from 2.16859e-007 +to 2.16859e-007
Heightened Def Con from 2.16859e-007 to 2.1689e-007
Heightened Def Con from 2.16892e-007 to 2.17892e-007
Heightened Def Con from 2.17892e-007 +to 2.17892e-007
Heightened Def Con from 2.17892e-007 +to 2.17892e-007
Heightened Def Con from 2.17892e-007 to 2.17894e-007
Heightened Def Con from 2.17894e-007 +to 2.17896e-007
Heightened Def Con from 2.17897e-007 to 2.17897e-007
Heightened Def Con from 2.17897e-007 to 2.17913e-007
Heightened Def Con from 2.17944e-007 to 2.17946e-007
Heightened Def Con from 2.17946e-007 to 2.17946e-007
Heightened Def Con from 2.17946e-007 to 2.18948e-007
Heightened Def Con from 2.1895e-007 to 2.18965e-007
Heightened Def Con from 2.18966e-007 +to 2.19107e-007
Heightened Def Con from 2.19147e-007 to 2.19162e-007
Heightened Def Con from 2.19167e-007 to 2.19182e-007
Heightened Def Con from 2.19194e-007 ++++to 2.19226e-007
Heightened Def Con from 2.19226e-007 +to 2.19242e-007
Heightened Def Con from 2.19246e-007 +to 2.19386e-007
Heightened Def Con from 2.1939e-007 to 2.1953e-007
Heightened Def Con from 2.19534e-007 to 2.19535e-007
Heightened Def Con from 2.19535e-007 to 2.1955e-007
Heightened Def Con from 2.19562e-007 to 2.19562e-007
Heightened Def Con from 2.19562e-007 to 2.19564e-007
Heightened Def Con from 2.19564e-007 to 2.19566e-007
Heightened Def Con from 2.19567e-007 +to 2.19582e-007
Heightened Def Con from 2.19582e-007 to 2.19598e-007
Heightened Def Con from 2.19602e-007 +to 2.19727e-007
Heightened Def Con from 2.19727e-007 +to 2.19728e-007
Heightened Def Con from 2.19728e-007 to 2.19743e-007
Heightened Def Con from 2.19745e-007 ++to 2.1976e-007
Heightened Def Con from 2.19761e-007 +to 2.19777e-007
Heightened Def Con from 2.19777e-007 +++to 2.19794e-007
Heightened Def Con from 2.19794e-007 to 2.19795e-007
Heightened Def Con from 2.19795e-007 to 2.19795e-007
Heightened Def Con from 2.19795e-007 +to 2.19811e-007
Heightened Def Con from 2.19815e-007 to 2.19817e-007
Heightened Def Con from 2.19817e-007 +to 2.19819e-007
Heightened Def Con from 2.19826e-007 +to 2.20828e-007
Heightened Def Con from 2.20828e-007 to 2.20828e-007
Heightened Def Con from 2.20829e-007 to 2.20955e-007
Heightened Def Con from 2.20958e-007 to 2.20974e-007
Heightened Def Con from 2.20974e-007 to 2.20974e-007
Heightened Def Con from 2.20974e-007 to 2.20974e-007
Heightened Def Con from 2.20974e-007 to 2.20976e-007
Heightened Def Con from 2.2098e-007 to 2.20996e-007
Heightened Def Con from 2.20996e-007 +to 2.21996e-007
Heightened Def Con from 2.21997e-007 +to 2.23012e-007
Heightened Def Con from 2.23013e-007 +++to 2.23015e-007
Heightened Def Con from 2.23019e-007 +to 2.24019e-007
Heightened Def Con from 2.24019e-007 to 2.24019e-007
Heightened Def Con from 2.24019e-007 to 2.2402e-007
Heightened Def Con from 2.24023e-007 to 2.24023e-007
Heightened Def Con from 2.24024e-007 +to 2.24024e-007
Heightened Def Con from 2.24024e-007 to 2.24026e-007
Heightened Def Con from 2.24038e-007 to 2.24053e-007
Heightened Def Con from 2.24053e-007 +to 2.24055e-007
Heightened Def Con from 2.24055e-007 +to 2.24071e-007
Heightened Def Con from 2.24075e-007 to 2.24077e-007
Heightened Def Con from 2.24077e-007 to 2.24077e-007
Heightened Def Con from 2.24078e-007 to 2.2408e-007
Heightened Def Con from 2.24085e-007 to 2.25087e-007
Heightened Def Con from 2.25087e-007 +to 2.25087e-007
Heightened Def Con from 2.25087e-007 to 2.25087e-007
Heightened Def Con from 2.25087e-007 +to 2.25089e-007
Heightened Def Con from 2.25089e-007 +to 2.25105e-007
Heightened Def Con from 2.25105e-007 ++to 2.25105e-007
Heightened Def Con from 2.25105e-007 to 2.25106e-007
Heightened Def Con from 2.25113e-007 to 2.25113e-007
Heightened Def Con from 2.25113e-007 to 2.25113e-007
Heightened Def Con from 2.25114e-007 to 2.25116e-007
Heightened Def Con from 2.25116e-007 +++to 2.25118e-007
Heightened Def Con from 2.25119e-007 to 2.2512e-007
Heightened Def Con from 2.25121e-007 +to 2.25139e-007
Heightened Def Con from 2.25139e-007 to 2.25154e-007
Heightened Def Con from 2.25161e-007 ++to 2.26177e-007
Heightened Def Con from 2.26179e-007 +to 2.26194e-007
Heightened Def Con from 2.26194e-007 to 2.27196e-007
Heightened Def Con from 2.27196e-007 to 2.27198e-007
Heightened Def Con from 2.272e-007 to 2.27202e-007
Heightened Def Con from 2.27202e-007 to 2.27202e-007
Heightened Def Con from 2.27202e-007 to 2.28202e-007
Heightened Def Con from 2.28202e-007 to 2.28218e-007
Heightened Def Con from 2.28218e-007 to 2.28219e-007
Heightened Def Con from 2.28219e-007 to 2.28234e-007
Heightened Def Con from 2.28234e-007 +to 2.29234e-007
Heightened Def Con from 2.29234e-007 to 2.2925e-007
Heightened Def Con from 2.2925e-007 +to 2.29266e-007
Heightened Def Con from 2.29266e-007 to 2.29281e-007
Heightened Def Con from 2.29281e-007 to 2.29283e-007
Heightened Def Con from 2.29284e-007 to 2.30299e-007
Heightened Def Con from 2.30395e-007 to 2.32395e-007
Heightened Def Con from 2.32396e-007 to 2.32413e-007
Heightened Def Con from 2.32413e-007 to 2.32429e-007
Heightened Def Con from 2.32429e-007 to 2.32431e-007
Heightened Def Con from 2.32435e-007 to 2.32467e-007
Heightened Def Con from 2.3247e-007 to 2.3247e-007
Heightened Def Con from 2.3247e-007 +to 2.3247e-007
Heightened Def Con from 2.3247e-007 +to 2.32472e-007
Heightened Def Con from 2.32472e-007 to 2.32599e-007
Heightened Def Con from 2.32602e-007 +to 2.32602e-007
Heightened Def Con from 2.32602e-007 +to 2.32743e-007
Heightened Def Con from 2.32743e-007 +to 2.32745e-007
Heightened Def Con from 2.32749e-007 to 2.32749e-007
Heightened Def Con from 2.32749e-007 ++to 2.32876e-007
Heightened Def Con from 2.32876e-007 +to 2.32876e-007
Heightened Def Con from 2.32876e-007 to 2.32877e-007
Heightened Def Con from 2.32878e-007 to 2.33879e-007
Heightened Def Con from 2.33879e-007 to 2.33881e-007
Heightened Def Con from 2.33885e-007 to 2.33886e-007
Heightened Def Con from 2.33891e-007 to 2.33906e-007
Heightened Def Con from 2.33909e-007 to 2.33909e-007
Heightened Def Con from 2.33909e-007 ++to 2.33925e-007
Heightened Def Con from 2.33925e-007 to 2.33927e-007
Heightened Def Con from 2.3393e-007 to 2.33932e-007
Heightened Def Con from 2.33932e-007 to 2.33934e-007
Heightened Def Con from 2.33934e-007 to 2.33935e-007
Heightened Def Con from 2.33935e-007 to 2.33935e-007
Heightened Def Con from 2.33935e-007 to 2.33966e-007
Heightened Def Con from 2.33966e-007 +to 2.33982e-007
Heightened Def Con from 2.34013e-007 to 2.34154e-007
Heightened Def Con from 2.34154e-007 ++to 2.3517e-007
Heightened Def Con from 2.35182e-007 to 2.35183e-007
Heightened Def Con from 2.35184e-007 ++to 2.35186e-007
Heightened Def Con from 2.3519e-007 to 2.35192e-007
Heightened Def Con from 2.35192e-007 to 2.35194e-007
Heightened Def Con from 2.35195e-007 ++to 2.35199e-007
Heightened Def Con from 2.35199e-007 +to 2.36215e-007
Heightened Def Con from 2.36216e-007 to 2.36232e-007
Heightened Def Con from 2.36233e-007 +to 2.36233e-007
Heightened Def Con from 2.36233e-007 +to 2.36233e-007
Heightened Def Con from 2.36236e-007 +to 2.37236e-007
Heightened Def Con from 2.37237e-007 +to 2.37268e-007
Heightened Def Con from 2.37304e-007 to 2.38304e-007
Heightened Def Con from 2.38304e-007 +to 2.38319e-007
Heightened Def Con from 2.38331e-007 to 2.38347e-007
Heightened Def Con from 2.38351e-007 to 2.38353e-007
Heightened Def Con from 2.38354e-007 to 2.39356e-007
Heightened Def Con from 2.39356e-007 to 2.39372e-007
Heightened Def Con from 2.39375e-007 to 2.39375e-007
Heightened Def Con from 2.39375e-007 to 2.39378e-007
Heightened Def Con from 2.39381e-007 to 2.39397e-007
Heightened Def Con from 2.39397e-007 ++to 2.39397e-007
Heightened Def Con from 2.39397e-007 to 2.39414e-007
Heightened Def Con from 2.39418e-007 +to 2.3942e-007
Heightened Def Con from 2.3942e-007 to 2.39435e-007
Heightened Def Con from 2.39436e-007 to 2.39451e-007
Heightened Def Con from 2.39562e-007 to 2.39564e-007
Heightened Def Con from 2.39568e-007 to 2.39584e-007
Heightened Def Con from 2.39584e-007 +to 2.39586e-007
Heightened Def Con from 2.39588e-007 to 2.39588e-007
Heightened Def Con from 2.39588e-007 to 2.39715e-007
Heightened Def Con from 2.39715e-007 to 2.39716e-007
Heightened Def Con from 2.39719e-007 to 2.3972e-007
Heightened Def Con from 2.3972e-007 to 2.3972e-007
Heightened Def Con from 2.3972e-007 +to 2.3972e-007
Heightened Def Con from 2.3972e-007 to 2.39722e-007
Heightened Def Con from 2.39722e-007 +to 2.3974e-007
Heightened Def Con from 2.3974e-007 to 2.39741e-007
Heightened Def Con from 2.39742e-007 ++to 2.40742e-007
Heightened Def Con from 2.40753e-007 to 2.40753e-007
Heightened Def Con from 2.40753e-007 +to 2.40785e-007
Heightened Def Con from 2.4083e-007 +to 2.4083e-007
Heightened Def Con from 2.4083e-007 to 2.4083e-007
Heightened Def Con from 2.4083e-007 +to 2.41832e-007
Heightened Def Con from 2.41832e-007 +to 2.42832e-007
Heightened Def Con from 2.42833e-007 +to 2.42848e-007
Heightened Def Con from 2.42852e-007 to 2.43867e-007
Heightened Def Con from 2.43867e-007 ++++to 2.44867e-007
Heightened Def Con from 2.50869e-007 +to 2.50869e-007
Heightened Def Con from 2.50869e-007 +to 2.51873e-007
Heightened Def Con from 2.51877e-007 to 2.51879e-007
Heightened Def Con from 2.51879e-007 +to 2.52879e-007
Heightened Def Con from 2.58895e-007 +to 2.58895e-007
Heightened Def Con from 2.58895e-007 +to 2.60895e-007
Heightened Def Con from 2.609e-007 to 2.60916e-007
Heightened Def Con from 2.60916e-007 ++to 2.60931e-007
Heightened Def Con from 2.60936e-007 to 2.60936e-007
Heightened Def Con from 2.60936e-007 +++to 2.60952e-007
Heightened Def Con from 2.60952e-007 to 2.61967e-007
Heightened Def Con from 2.61969e-007 to 2.61969e-007
Heightened Def Con from 2.61969e-007 +to 2.61984e-007
Heightened Def Con from 2.61984e-007 to 2.62e-007
Heightened Def Con from 2.62004e-007 +to 2.62019e-007
Heightened Def Con from 2.62023e-007 +to 2.63023e-007
Heightened Def Con from 2.63242e-007 +to 2.63258e-007
Heightened Def Con from 2.63292e-007 to 2.63292e-007
Heightened Def Con from 2.63292e-007 to 2.63294e-007
Heightened Def Con from 2.63298e-007 to 2.63298e-007
Heightened Def Con from 2.63298e-007 +to 2.63314e-007
Heightened Def Con from 2.63314e-007 +to 2.64314e-007
Heightened Def Con from 2.64314e-007 to 2.64316e-007
Heightened Def Con from 2.64317e-007 +to 2.64319e-007
Heightened Def Con from 2.64319e-007 +to 2.64321e-007
Heightened Def Con from 2.64321e-007 to 2.64323e-007
Heightened Def Con from 2.64328e-007 +to 2.6433e-007
Heightened Def Con from 2.64334e-007 to 2.64336e-007
Heightened Def Con from 2.6434e-007 to 2.6534e-007
Heightened Def Con from 2.65341e-007 to 2.65343e-007
Heightened Def Con from 2.65343e-007 to 2.65343e-007
Heightened Def Con from 2.65343e-007 to 2.65345e-007
Heightened Def Con from 2.65345e-007 to 2.65345e-007
Heightened Def Con from 2.65345e-007 to 2.65346e-007
Heightened Def Con from 2.65346e-007 to 2.65348e-007
Heightened Def Con from 2.65348e-007 to 2.65348e-007
Heightened Def Con from 2.65348e-007 to 2.65349e-007
Heightened Def Con from 2.65349e-007 to 2.67349e-007
Heightened Def Con from 2.67349e-007 to 2.67474e-007
Heightened Def Con from 2.67474e-007 to 2.67474e-007
Heightened Def Con from 2.67475e-007 ++to 2.67477e-007
Heightened Def Con from 2.67477e-007 to 2.67479e-007
Heightened Def Con from 2.67479e-007 to 2.67481e-007
Heightened Def Con from 2.67486e-007 +to 2.67486e-007
Heightened Def Con from 2.67487e-007 ++to 2.67489e-007
Heightened Def Con from 2.67489e-007 to 2.67489e-007
Heightened Def Con from 2.67489e-007 to 2.67489e-007
Heightened Def Con from 2.67489e-007 to 2.67505e-007
Heightened Def Con from 2.67509e-007 to 2.67509e-007
Heightened Def Con from 2.67509e-007 ++to 2.67527e-007
Heightened Def Con from 2.67527e-007 to 2.68527e-007
Heightened Def Con from 2.68527e-007 to 2.68558e-007
Heightened Def Con from 2.68558e-007 to 2.68574e-007
Heightened Def Con from 2.68593e-007 ++to 2.69593e-007
Heightened Def Con from 2.69598e-007 +to 2.70598e-007
Heightened Def Con from 2.7763e-007 to 2.7863e-007
Heightened Def Con from 2.7863e-007 to 2.7863e-007
Heightened Def Con from 2.7863e-007 to 2.78661e-007
Heightened Def Con from 2.78661e-007 +to 2.78661e-007
Heightened Def Con from 2.78661e-007 ++++to 2.78663e-007
Heightened Def Con from 2.78667e-007 to 2.78669e-007
Heightened Def Con from 2.7868e-007 +++to 2.7968e-007
Heightened Def Con from 2.79684e-007 to 2.807e-007
Heightened Def Con from 2.807e-007 to 2.80701e-007
Heightened Def Con from 2.80701e-007 to 2.80701e-007
Heightened Def Con from 2.80701e-007 +to 2.80703e-007
Heightened Def Con from 2.80703e-007 ++to 2.80705e-007
Heightened Def Con from 2.80705e-007 to 2.8072e-007
Heightened Def Con from 2.80721e-007 +to 2.80752e-007
Heightened Def Con from 2.80757e-007 to 2.80757e-007
Heightened Def Con from 2.80757e-007 +to 2.80759e-007
Heightened Def Con from 2.80759e-007 to 2.80759e-007
Heightened Def Con from 2.80761e-007 to 2.80763e-007
Heightened Def Con from 2.80763e-007 to 2.8078e-007
Heightened Def Con from 2.80782e-007 to 2.81782e-007
Heightened Def Con from 2.81785e-007 to 2.81787e-007
Heightened Def Con from 2.81787e-007 +to 2.81803e-007
Heightened Def Con from 2.81807e-007 to 2.81807e-007
Heightened Def Con from 2.81807e-007 +to 2.81838e-007
Heightened Def Con from 2.81838e-007 to 2.81854e-007
Heightened Def Con from 2.81858e-007 +to 2.81874e-007
Heightened Def Con from 2.81874e-007 to 2.81874e-007
Heightened Def Con from 2.81874e-007 to 2.81874e-007
Heightened Def Con from 2.81874e-007 +to 2.8189e-007
Heightened Def Con from 2.8189e-007 to 2.8189e-007
Heightened Def Con from 2.8189e-007 +to 2.81908e-007
Heightened Def Con from 2.81908e-007 +to 2.8191e-007
Heightened Def Con from 2.8191e-007 +to 2.81912e-007
Heightened Def Con from 2.81912e-007 to 2.81914e-007
Heightened Def Con from 2.81926e-007 +to 2.81941e-007
Heightened Def Con from 2.81943e-007 to 2.81945e-007
Heightened Def Con from 2.81945e-007 to 2.82086e-007
Heightened Def Con from 2.82086e-007 to 2.82103e-007
Heightened Def Con from 2.82108e-007 to 2.8211e-007
Heightened Def Con from 2.8211e-007 +to 2.82112e-007
Heightened Def Con from 2.82113e-007 +to 2.82113e-007
Heightened Def Con from 2.82113e-007 +to 2.82115e-007
Heightened Def Con from 2.82116e-007 ++to 2.82257e-007
Heightened Def Con from 2.82257e-007 to 2.82257e-007
Heightened Def Con from 2.82257e-007 ++to 2.82275e-007
Heightened Def Con from 2.82283e-007 to 2.82284e-007
Heightened Def Con from 2.82284e-007 to 2.82286e-007
Heightened Def Con from 2.8229e-007 to 2.8229e-007
Heightened Def Con from 2.8229e-007 to 2.82291e-007
Heightened Def Con from 2.82291e-007 to 2.82293e-007
Heightened Def Con from 2.823e-007 to 2.823e-007
Heightened Def Con from 2.823e-007 to 2.82317e-007
Heightened Def Con from 2.82317e-007 ++++to 2.82317e-007
Heightened Def Con from 2.82317e-007 +to 2.83317e-007
Heightened Def Con from 2.83318e-007 to 2.83318e-007
Heightened Def Con from 2.83318e-007 to 2.84319e-007
Heightened Def Con from 2.8432e-007 to 2.84321e-007
Heightened Def Con from 2.84321e-007 +to 2.85321e-007
Heightened Def Con from 2.87321e-007 to 2.87321e-007
Heightened Def Con from 2.87323e-007 to 2.87339e-007
Heightened Def Con from 2.87345e-007 +to 2.88345e-007
Heightened Def Con from 2.88345e-007 to 2.88345e-007
Heightened Def Con from 2.88347e-007 to 2.88349e-007
Heightened Def Con from 2.88376e-007 ++to 2.89376e-007
Heightened Def Con from 2.89376e-007 to 2.89378e-007
Heightened Def Con from 2.89379e-007 +to 2.89395e-007
Heightened Def Con from 2.89395e-007 +to 2.89411e-007
Heightened Def Con from 2.8945e-007 to 2.89466e-007
Heightened Def Con from 2.89466e-007 to 2.89468e-007
Heightened Def Con from 2.89468e-007 +to 2.8947e-007
Heightened Def Con from 2.89472e-007 to 2.89487e-007
Heightened Def Con from 2.89488e-007 ++to 2.90488e-007
Heightened Def Con from 2.90488e-007 to 2.90488e-007
Heightened Def Con from 2.90488e-007 +to 2.90504e-007
Heightened Def Con from 2.90506e-007 to 2.90506e-007
Heightened Def Con from 2.90506e-007 to 2.90537e-007
Heightened Def Con from 2.90537e-007 ++to 2.91537e-007
Heightened Def Con from 2.93544e-007 to 2.93544e-007
Heightened Def Con from 2.93544e-007 to 2.93544e-007
Heightened Def Con from 2.93546e-007 to 2.93548e-007
Heightened Def Con from 2.93548e-007 ++to 2.93673e-007
Heightened Def Con from 2.93673e-007 to 2.93674e-007
Heightened Def Con from 2.93674e-007 +to 2.93676e-007
Heightened Def Con from 2.9368e-007 to 2.93696e-007
Heightened Def Con from 2.93731e-007 ++to 2.93733e-007
Heightened Def Con from 2.93733e-007 to 2.93733e-007
Heightened Def Con from 2.93733e-007 to 2.94733e-007
Heightened Def Con from 2.94733e-007 to 2.94733e-007
Heightened Def Con from 2.94733e-007 +to 2.94733e-007
Heightened Def Con from 2.94734e-007 to 2.94749e-007
Heightened Def Con from 2.94749e-007 to 2.94751e-007
Heightened Def Con from 2.94755e-007 +to 2.94756e-007
Heightened Def Con from 2.94756e-007 to 2.94756e-007
Heightened Def Con from 2.94756e-007 to 2.94758e-007
Heightened Def Con from 2.94759e-007 to 2.94759e-007
Heightened Def Con from 2.94759e-007 +++to 2.94884e-007
Heightened Def Con from 2.94884e-007 to 2.949e-007
Heightened Def Con from 2.949e-007 to 2.95902e-007
Heightened Def Con from 2.95907e-007 to 2.95909e-007
Heightened Def Con from 2.95909e-007 to 2.96034e-007
Heightened Def Con from 2.96034e-007 to 2.96161e-007
Heightened Def Con from 2.96166e-007 to 2.96181e-007
Heightened Def Con from 2.96181e-007 to 2.97183e-007
Heightened Def Con from 2.97184e-007 to 2.97184e-007
Heightened Def Con from 2.97184e-007 ++to 2.97202e-007
Heightened Def Con from 2.97233e-007 to 2.97233e-007
Heightened Def Con from 2.97233e-007 to 2.97235e-007
Heightened Def Con from 2.97235e-007 to 2.97235e-007
Heightened Def Con from 2.97235e-007 to 2.97236e-007
Heightened Def Con from 2.97236e-007 to 2.97253e-007
Heightened Def Con from 2.97253e-007 to 2.97269e-007
Heightened Def Con from 2.97269e-007 to 2.97287e-007
Heightened Def Con from 2.97287e-007 to 2.97289e-007
Heightened Def Con from 2.97289e-007 to 2.99289e-007
Heightened Def Con from 3.01289e-007 +to 3.01289e-007
Heightened Def Con from 3.01289e-007 to 3.01289e-007
Heightened Def Con from 3.01291e-007 ++to 3.01291e-007
Heightened Def Con from 3.01291e-007 to 3.01291e-007
Heightened Def Con from 3.01291e-007 to 3.01291e-007
Heightened Def Con from 3.01291e-007 +to 3.01293e-007
Heightened Def Con from 3.01294e-007 +to 3.01294e-007
Heightened Def Con from 3.01294e-007 to 3.01325e-007
Heightened Def Con from 3.01325e-007 +to 3.01343e-007
Heightened Def Con from 3.01343e-007 to 3.02345e-007
Heightened Def Con from 3.02345e-007 to 3.02361e-007
Heightened Def Con from 3.02365e-007 to 3.0238e-007
Heightened Def Con from 3.0238e-007 to 3.02381e-007
Heightened Def Con from 3.02381e-007 to 3.03381e-007
Heightened Def Con from 3.03381e-007 to 3.03398e-007
Heightened Def Con from 3.03411e-007 to 3.03427e-007
Heightened Def Con from 3.03427e-007 to 3.03429e-007
Heightened Def Con from 3.03429e-007 to 3.03429e-007
Heightened Def Con from 3.0343e-007 to 3.03445e-007
Heightened Def Con from 3.03447e-007 to 3.03447e-007
Heightened Def Con from 3.03447e-007 +++to 3.03447e-007
Heightened Def Con from 3.03448e-007 +to 3.03463e-007
Heightened Def Con from 3.03504e-007 to 3.03505e-007
Heightened Def Con from 3.03505e-007 ++to 3.04506e-007
Heightened Def Con from 3.04507e-007 +to 3.04522e-007
Heightened Def Con from 3.04522e-007 to 3.04523e-007
Heightened Def Con from 3.04523e-007 to 3.05525e-007
Heightened Def Con from 3.05525e-007 +to 3.0654e-007
Heightened Def Con from 3.06544e-007 to 3.06545e-007
Heightened Def Con from 3.06545e-007 +to 3.07545e-007
Heightened Def Con from 3.07545e-007 +to 3.07547e-007
Heightened Def Con from 3.07547e-007 to 3.07578e-007
Heightened Def Con from 3.07579e-007 +to 3.07594e-007
Heightened Def Con from 3.07608e-007 +to 3.07608e-007
Heightened Def Con from 3.07608e-007 to 3.07608e-007
Heightened Def Con from 3.07608e-007 ++++to 3.07624e-007
Heightened Def Con from 3.07627e-007 +to 3.07627e-007
Heightened Def Con from 3.07627e-007 to 3.08643e-007
Heightened Def Con from 3.08648e-007 to 3.08648e-007
Heightened Def Con from 3.08648e-007 to 3.08648e-007
Heightened Def Con from 3.08648e-007 to 3.08649e-007
Heightened Def Con from 3.08649e-007 +to 3.10649e-007
Heightened Def Con from 3.10649e-007 to 3.10649e-007
Heightened Def Con from 3.10649e-007 to 3.10649e-007
Heightened Def Con from 3.10649e-007 to 3.10649e-007
Heightened Def Con from 3.10649e-007 +to 3.10651e-007
Heightened Def Con from 3.10653e-007 to 3.10653e-007
Heightened Def Con from 3.10653e-007 to 3.10655e-007
Heightened Def Con from 3.1066e-007 +to 3.10676e-007
Heightened Def Con from 3.1068e-007 to 3.10682e-007
Heightened Def Con from 3.10685e-007 to 3.10687e-007
Heightened Def Con from 3.10687e-007 to 3.10703e-007
Heightened Def Con from 3.10703e-007 ++to 3.11703e-007
Heightened Def Con from 3.11703e-007 to 3.11735e-007
Heightened Def Con from 3.11736e-007 +to 3.11754e-007
Heightened Def Con from 3.11754e-007 to 3.11755e-007
Heightened Def Con from 3.11755e-007 to 3.12771e-007
Heightened Def Con from 3.12772e-007 to 3.12774e-007
Heightened Def Con from 3.12774e-007 to 3.1279e-007
Heightened Def Con from 3.1279e-007 to 3.12792e-007
[...]
Heightened Def Con from 5.73828e-006 to 5.73928e-006
Heightened Def Con from 5.73928e-006 +++to 5.73929e-006
Heightened Def Con from 5.7393e-006 to 5.7393e-006
Heightened Def Con from 5.7393e-006 +to 5.73933e-006
Heightened Def Con from 5.73933e-006 to 5.73935e-006
Heightened Def Con from 5.73935e-006 +to 5.73935e-006
Heightened Def Con from 5.73936e-006 to 5.73938e-006
Heightened Def Con from 5.73938e-006 to 5.73938e-006
Heightened Def Con from 5.73938e-006 +to 5.73938e-006
Heightened Def Con from 5.73938e-006 +to 5.73938e-006
Heightened Def Con from 5.73938e-006 to 5.73938e-006
Heightened Def Con from 5.73938e-006 to 5.7394e-006
Heightened Def Con from 5.7394e-006 +to 5.73952e-006
Heightened Def Con from 5.73952e-006 to 5.73952e-006
Heightened Def Con from 5.73952e-006 to 5.73956e-006
Heightened Def Con from 5.73959e-006 to 5.7396e-006
Heightened Def Con from 5.7396e-006 +to 5.73973e-006
Heightened Def Con from 5.73973e-006 to 5.73974e-006
Heightened Def Con from 5.73978e-006 to 5.73978e-006
Heightened Def Con from 5.73978e-006 to 5.74078e-006
Heightened Def Con from 5.74078e-006 to 5.7408e-006
Heightened Def Con from 5.7408e-006 +to 5.7408e-006
Heightened Def Con from 5.7408e-006 to 5.74082e-006
Heightened Def Con from 5.74082e-006 +to 5.74082e-006
Heightened Def Con from 5.74082e-006 to 5.74183e-006
Heightened Def Con from 5.74183e-006 +to 5.74183e-006
Heightened Def Con from 5.74183e-006 +to 5.74184e-006
Heightened Def Con from 5.74184e-006 to 5.74184e-006
Heightened Def Con from 5.74184e-006 to 5.74184e-006
Heightened Def Con from 5.74184e-006 +to 5.74284e-006
Heightened Def Con from 5.74284e-006 to 5.74286e-006
Heightened Def Con from 5.74287e-006 +to 5.74287e-006
Heightened Def Con from 5.74287e-006 to 5.74288e-006
Heightened Def Con from 5.74288e-006 to 5.74288e-006
Heightened Def Con from 5.74289e-006 to 5.74289e-006
Heightened Def Con from 5.74289e-006 to 5.74291e-006
Heightened Def Con from 5.74291e-006 +to 5.74391e-006
Heightened Def Con from 5.74391e-006 +to 5.74392e-006
Heightened Def Con from 5.74392e-006 to 5.74394e-006
Heightened Def Con from 5.74394e-006 +++to 5.74396e-006
Heightened Def Con from 5.744e-006 to 5.74401e-006
Heightened Def Con from 5.74402e-006 to 5.74402e-006
Heightened Def Con from 5.74402e-006 ++to 5.74403e-006
Heightened Def Con from 5.74403e-006 to 5.74403e-006
Heightened Def Con from 5.74403e-006 to 5.74403e-006
Heightened Def Con from 5.74404e-006 to 5.74404e-006
Heightened Def Con from 5.74404e-006 to 5.74505e-006
Heightened Def Con from 5.74505e-006 to 5.74507e-006
Heightened Def Con from 5.74507e-006 to 5.74507e-006
Heightened Def Con from 5.74507e-006 to 5.74509e-006
Heightened Def Con from 5.74509e-006 to 5.74511e-006
Heightened Def Con from 5.74514e-006 +to 5.74514e-006
Heightened Def Con from 5.74514e-006 to 5.74615e-006
Heightened Def Con from 5.74616e-006 +to 5.74617e-006
Heightened Def Con from 5.7462e-006 to 5.7462e-006
Heightened Def Con from 5.7462e-006 +++to 5.74621e-006
Heightened Def Con from 5.74621e-006 to 5.74622e-006
Heightened Def Con from 5.74622e-006 to 5.74624e-006
Heightened Def Con from 5.74624e-006 ++to 5.74624e-006
Heightened Def Con from 5.74624e-006 to 5.74724e-006
Heightened Def Con from 5.74725e-006 to 5.74725e-006
Heightened Def Con from 5.74725e-006 to 5.74825e-006
Heightened Def Con from 5.74825e-006 to 5.74825e-006
Heightened Def Con from 5.74825e-006 to 5.74825e-006
Heightened Def Con from 5.74825e-006 +to 5.74839e-006
Heightened Def Con from 5.74839e-006 to 5.74939e-006
Heightened Def Con from 5.74939e-006 +to 5.74939e-006
Heightened Def Con from 5.74939e-006 +to 5.74939e-006
Heightened Def Con from 5.74939e-006 to 5.74941e-006
Heightened Def Con from 5.74941e-006 to 5.74941e-006
Heightened Def Con from 5.74941e-006 to 5.74941e-006
Heightened Def Con from 5.74941e-006 to 5.75041e-006
Heightened Def Con from 5.75041e-006 to 5.75043e-006
Heightened Def Con from 5.75043e-006 to 5.75043e-006
Heightened Def Con from 5.75043e-006 to 5.75043e-006
Heightened Def Con from 5.75043e-006 ++++++to 5.75044e-006
Heightened Def Con from 5.75044e-006 +to 5.75044e-006
Heightened Def Con from 5.75044e-006 to 5.75044e-006
Heightened Def Con from 5.75044e-006 to 5.75046e-006
Heightened Def Con from 5.75046e-006 to 5.75046e-006
Heightened Def Con from 5.75046e-006 to 5.75047e-006
Heightened Def Con from 5.75047e-006 +to 5.75049e-006
Heightened Def Con from 5.75055e-006 to 5.75055e-006
Heightened Def Con from 5.75055e-006 +to 5.75055e-006
Heightened Def Con from 5.75055e-006 +to 5.75055e-006
Heightened Def Con from 5.75055e-006 to 5.75055e-006
Heightened Def Con from 5.75055e-006 to 5.75155e-006
Heightened Def Con from 5.75155e-006 +to 5.75157e-006
Heightened Def Con from 5.75157e-006 to 5.75157e-006
Heightened Def Con from 5.75157e-006 to 5.75157e-006
Heightened Def Con from 5.75157e-006 to 5.75157e-006
Heightened Def Con from 5.75157e-006 +to 5.75157e-006
Heightened Def Con from 5.75158e-006 to 5.75158e-006
Heightened Def Con from 5.75158e-006 to 5.7516e-006
Heightened Def Con from 5.7516e-006 to 5.7526e-006
Heightened Def Con from 5.7526e-006 ++to 5.7526e-006
Heightened Def Con from 5.75261e-006 +to 5.75361e-006
Heightened Def Con from 5.75561e-006 ++to 5.75561e-006
Heightened Def Con from 5.75561e-006 ++to 5.75561e-006
Heightened Def Con from 5.75561e-006 to 5.75561e-006
Heightened Def Con from 5.75561e-006 +to 5.75573e-006
Heightened Def Con from 5.75574e-006 to 5.75574e-006
Heightened Def Con from 5.75574e-006 +to 5.75574e-006
Heightened Def Con from 5.75574e-006 to 5.75576e-006
Heightened Def Con from 5.75579e-006 to 5.75579e-006
Heightened Def Con from 5.75579e-006 to 5.75581e-006
Heightened Def Con from 5.7559e-006 +to 5.7559e-006
Heightened Def Con from 5.7559e-006 +to 5.7559e-006
Heightened Def Con from 5.7559e-006 to 5.75591e-006
Heightened Def Con from 5.75591e-006 to 5.75592e-006
Heightened Def Con from 5.75593e-006 to 5.75695e-006
Heightened Def Con from 5.75698e-006 +to 5.757e-006
Heightened Def Con from 5.75702e-006 +to 5.75702e-006
Heightened Def Con from 5.75704e-006 to 5.75804e-006
Heightened Def Con from 5.75804e-006 to 5.75805e-006
Heightened Def Con from 5.75805e-006 to 5.75807e-006
Heightened Def Con from 5.75807e-006 +to 5.75807e-006
Heightened Def Con from 5.75807e-006 to 5.75807e-006
Heightened Def Con from 5.75807e-006 to 5.75807e-006
Heightened Def Con from 5.75807e-006 +++to 5.75907e-006
Heightened Def Con from 5.75907e-006 to 5.75907e-006
Heightened Def Con from 5.75909e-006 to 5.7591e-006
Heightened Def Con from 5.7591e-006 to 5.7591e-006
Heightened Def Con from 5.7591e-006 to 5.7591e-006
Heightened Def Con from 5.7591e-006 to 5.75912e-006
Heightened Def Con from 5.75912e-006 to 5.76112e-006
Heightened Def Con from 5.76112e-006 to 5.76112e-006
Heightened Def Con from 5.76113e-006 to 5.76213e-006
Heightened Def Con from 5.76213e-006 ++to 5.76213e-006
Heightened Def Con from 5.76214e-006 to 5.76214e-006
Heightened Def Con from 5.76214e-006 +to 5.76214e-006
Heightened Def Con from 5.76214e-006 to 5.76314e-006
Heightened Def Con from 5.76314e-006 +to 5.76314e-006
Heightened Def Con from 5.76314e-006 to 5.76316e-006
Heightened Def Con from 5.76316e-006 to 5.76316e-006
Heightened Def Con from 5.76316e-006 to 5.76317e-006
Heightened Def Con from 5.76317e-006 to 5.76318e-006
Heightened Def Con from 5.76318e-006 to 5.7632e-006
Heightened Def Con from 5.7632e-006 +to 5.7642e-006
Heightened Def Con from 5.7642e-006 to 5.76421e-006
Heightened Def Con from 5.76421e-006 to 5.76421e-006
Heightened Def Con from 5.76421e-006 +to 5.76521e-006
Heightened Def Con from 5.76521e-006 ++to 5.76521e-006
Heightened Def Con from 5.76521e-006 +to 5.76621e-006
Heightened Def Con from 5.76625e-006 to 5.76625e-006
Heightened Def Con from 5.76625e-006 to 5.76626e-006
Heightened Def Con from 5.76626e-006 +to 5.76628e-006
Heightened Def Con from 5.76631e-006 +to 5.76633e-006
Heightened Def Con from 5.76633e-006 +to 5.76733e-006
Heightened Def Con from 5.76733e-006 +to 5.76833e-006
Heightened Def Con from 5.76833e-006 to 5.76834e-006
Heightened Def Con from 5.76834e-006 +to 5.76836e-006
Heightened Def Con from 5.76836e-006 to 5.76837e-006
Heightened Def Con from 5.76837e-006 to 5.77037e-006
Heightened Def Con from 5.77037e-006 +to 5.77038e-006
Heightened Def Con from 5.77038e-006 ++to 5.77039e-006
Heightened Def Con from 5.77039e-006 +to 5.77039e-006
Heightened Def Con from 5.77039e-006 to 5.77039e-006
Heightened Def Con from 5.77039e-006 to 5.77041e-006
Heightened Def Con from 5.77044e-006 +to 5.77144e-006
Heightened Def Con from 5.77746e-006 to 5.77747e-006
Heightened Def Con from 5.77747e-006 to 5.77747e-006
Heightened Def Con from 5.77747e-006 to 5.7775e-006
Heightened Def Con from 5.77753e-006 +to 5.77755e-006
Heightened Def Con from 5.77758e-006 ++++to 5.77758e-006
Heightened Def Con from 5.77758e-006 to 5.7776e-006
Heightened Def Con from 5.7776e-006 to 5.7776e-006
Heightened Def Con from 5.77761e-006 to 5.77862e-006
Heightened Def Con from 5.77862e-006 ++to 5.77862e-006
Heightened Def Con from 5.77862e-006 to 5.77862e-006
Heightened Def Con from 5.77862e-006 ++to 5.77862e-006
Heightened Def Con from 5.77862e-006 to 5.77876e-006
Heightened Def Con from 5.77876e-006 +to 5.77976e-006
Heightened Def Con from 5.77976e-006 ++to 5.78077e-006
Heightened Def Con from 5.78077e-006 to 5.78177e-006
Heightened Def Con from 5.78177e-006 to 5.78277e-006
Heightened Def Con from 5.78277e-006 to 5.78277e-006
Heightened Def Con from 5.78278e-006 to 5.78279e-006
Heightened Def Con from 5.78279e-006 +to 5.78379e-006
Heightened Def Con from 5.78381e-006 to 5.78381e-006
Heightened Def Con from 5.78382e-006 to 5.78383e-006
Heightened Def Con from 5.78383e-006 +to 5.78384e-006
Heightened Def Con from 5.78385e-006 to 5.78385e-006
Heightened Def Con from 5.78385e-006 to 5.78385e-006
Heightened Def Con from 5.78385e-006 +to 5.78387e-006
Heightened Def Con from 5.78387e-006 to 5.78389e-006
Heightened Def Con from 5.78394e-006 +to 5.78396e-006
Heightened Def Con from 5.78396e-006 to 5.78396e-006
Heightened Def Con from 5.78396e-006 +to 5.78396e-006
Heightened Def Con from 5.78396e-006 +to 5.78396e-006
Heightened Def Con from 5.78396e-006 +++to 5.78498e-006
Heightened Def Con from 5.78498e-006 to 5.78501e-006
Heightened Def Con from 5.78501e-006 to 5.78503e-006
Heightened Def Con from 5.78503e-006 to 5.78506e-006
Heightened Def Con from 5.78506e-006 +to 5.78506e-006
Heightened Def Con from 5.78506e-006 +to 5.78506e-006
Heightened Def Con from 5.78506e-006 to 5.78506e-006
Heightened Def Con from 5.78507e-006 to 5.78507e-006
Heightened Def Con from 5.78507e-006 to 5.78507e-006
Heightened Def Con from 5.78507e-006 to 5.78707e-006
Heightened Def Con from 5.78907e-006 to 5.78908e-006
Heightened Def Con from 5.78908e-006 to 5.78909e-006
Heightened Def Con from 5.78909e-006 ++to 5.7891e-006
Heightened Def Con from 5.7891e-006 to 5.7891e-006
Heightened Def Con from 5.7891e-006 ++to 5.7891e-006
Heightened Def Con from 5.78911e-006 ++to 5.78923e-006
Heightened Def Con from 5.78923e-006 to 5.78923e-006
Heightened Def Con from 5.78923e-006 +to 5.78923e-006
Heightened Def Con from 5.78923e-006 to 5.78923e-006
Heightened Def Con from 5.78923e-006 +to 5.78924e-006
Heightened Def Con from 5.78924e-006 +to 5.78924e-006
Heightened Def Con from 5.78924e-006 to 5.79026e-006
Heightened Def Con from 5.79026e-006 to 5.79026e-006
Heightened Def Con from 5.79026e-006 to 5.79026e-006
Heightened Def Con from 5.79026e-006 +to 5.79026e-006
Heightened Def Con from 5.79027e-006 to 5.79027e-006
Heightened Def Con from 5.79027e-006 +to 5.79027e-006
Heightened Def Con from 5.79027e-006 to 5.79027e-006
Heightened Def Con from 5.79027e-006 to 5.79029e-006
Heightened Def Con from 5.79029e-006 to 5.7903e-006
Heightened Def Con from 5.79034e-006 to 5.79035e-006
Heightened Def Con from 5.79035e-006 +to 5.79135e-006
Heightened Def Con from 5.79135e-006 ++to 5.79137e-006
Heightened Def Con from 5.79137e-006 to 5.79138e-006
Heightened Def Con from 5.79138e-006 +to 5.79138e-006
Heightened Def Con from 5.79138e-006 to 5.79138e-006
Heightened Def Con from 5.79138e-006 +to 5.79139e-006
Heightened Def Con from 5.79139e-006 to 5.79139e-006
Heightened Def Con from 5.79139e-006 +to 5.79141e-006
Heightened Def Con from 5.79141e-006 to 5.79142e-006
Heightened Def Con from 5.79142e-006 +to 5.79142e-006
Heightened Def Con from 5.79143e-006 to 5.79144e-006
Heightened Def Con from 5.79144e-006 ++to 5.79145e-006
Heightened Def Con from 5.79145e-006 +to 5.79145e-006
Heightened Def Con from 5.79145e-006 to 5.79145e-006
Heightened Def Con from 5.79145e-006 to 5.79145e-006
Heightened Def Con from 5.79145e-006 to 5.79145e-006
Heightened Def Con from 5.79145e-006 to 5.79145e-006
Heightened Def Con from 5.79145e-006 +to 5.79147e-006
Heightened Def Con from 5.79147e-006 to 5.79147e-006
Heightened Def Con from 5.79147e-006 to 5.79147e-006
Heightened Def Con from 5.79147e-006 to 5.79149e-006
Heightened Def Con from 5.79149e-006 to 5.79251e-006
Heightened Def Con from 5.79251e-006 +to 5.79252e-006
Heightened Def Con from 5.79252e-006 +to 5.79252e-006
Heightened Def Con from 5.79252e-006 +++to 5.79254e-006
Heightened Def Con from 5.79254e-006 to 5.79257e-006
Heightened Def Con from 5.79257e-006 to 5.79357e-006
Heightened Def Con from 5.79358e-006 +to 5.79359e-006
Heightened Def Con from 5.79362e-006 to 5.79362e-006
Heightened Def Con from 5.79362e-006 to 5.79362e-006
Heightened Def Con from 5.79362e-006 to 5.79363e-006
Heightened Def Con from 5.79363e-006 to 5.79464e-006
Heightened Def Con from 5.79464e-006 to 5.79464e-006
Heightened Def Con from 5.79464e-006 to 5.79466e-006
Heightened Def Con from 5.79468e-006 ++to 5.79568e-006
Heightened Def Con from 5.79568e-006 +to 5.7957e-006
Heightened Def Con from 5.7957e-006 to 5.7957e-006
Heightened Def Con from 5.7957e-006 to 5.79583e-006
Heightened Def Con from 5.79583e-006 +to 5.79586e-006
Heightened Def Con from 5.79589e-006 to 5.79591e-006
Heightened Def Con from 5.79594e-006 to 5.79595e-006
Heightened Def Con from 5.79596e-006 to 5.79597e-006
Heightened Def Con from 5.79601e-006 to 5.79701e-006
Heightened Def Con from 5.79701e-006 to 5.79702e-006
Heightened Def Con from 5.79703e-006 +to 5.79803e-006
Heightened Def Con from 5.79803e-006 to 5.79803e-006
Heightened Def Con from 5.79803e-006 +++to 5.79804e-006
Heightened Def Con from 5.79804e-006 to 5.79806e-006
Heightened Def Con from 5.79806e-006 +to 5.79808e-006
Heightened Def Con from 5.79808e-006 to 5.79809e-006
Heightened Def Con from 5.79809e-006 to 5.7981e-006
Heightened Def Con from 5.7981e-006 to 5.7981e-006
Heightened Def Con from 5.7981e-006 to 5.79811e-006
Heightened Def Con from 5.79811e-006 to 5.79813e-006
Heightened Def Con from 5.79813e-006 to 5.79813e-006
Heightened Def Con from 5.79813e-006 ++to 5.79813e-006
Heightened Def Con from 5.79813e-006 to 5.79813e-006
Heightened Def Con from 5.79813e-006 to 5.79815e-006
Heightened Def Con from 5.79815e-006 to 5.79817e-006
Heightened Def Con from 5.79817e-006 +to 5.79818e-006
Heightened Def Con from 5.79818e-006 +to 5.79818e-006
Heightened Def Con from 5.79818e-006 +to 5.79819e-006
Heightened Def Con from 5.7982e-006 +to 5.79932e-006
Heightened Def Con from 5.79964e-006 to 5.79964e-006
Heightened Def Con from 5.79964e-006 to 5.80064e-006
Heightened Def Con from 5.80064e-006 to 5.80064e-006
Heightened Def Con from 5.80064e-006 to 5.80077e-006
Heightened Def Con from 5.80077e-006 to 5.80078e-006
Heightened Def Con from 5.8008e-006 to 5.80082e-006
Heightened Def Con from 5.80086e-006 +to 5.80186e-006
Heightened Def Con from 5.80186e-006 to 5.80186e-006
Heightened Def Con from 5.80186e-006 to 5.80186e-006
Heightened Def Con from 5.80187e-006 to 5.80187e-006
Heightened Def Con from 5.80187e-006 to 5.80188e-006
Heightened Def Con from 5.80188e-006 to 5.80188e-006
Heightened Def Con from 5.80188e-006 to 5.8019e-006
Heightened Def Con from 5.8019e-006 +to 5.8029e-006
Heightened Def Con from 5.8029e-006 +to 5.80292e-006
Heightened Def Con from 5.80292e-006 to 5.80292e-006
Heightened Def Con from 5.80292e-006 to 5.80293e-006
Heightened Def Con from 5.80293e-006 to 5.80295e-006
Heightened Def Con from 5.80296e-006 +to 5.80297e-006
Heightened Def Con from 5.80301e-006 to 5.80301e-006
Heightened Def Con from 5.80301e-006 to 5.80301e-006
Heightened Def Con from 5.80301e-006 to 5.80303e-006
Heightened Def Con from 5.80303e-006 to 5.80304e-006
Heightened Def Con from 5.80306e-006 to 5.80307e-006
Heightened Def Con from 5.80307e-006 to 5.80309e-006
Heightened Def Con from 5.80309e-006 to 5.8031e-006
Heightened Def Con from 5.80311e-006 to 5.80311e-006
Heightened Def Con from 5.80311e-006 to 5.80313e-006
Heightened Def Con from 5.80313e-006 to 5.80325e-006
Heightened Def Con from 5.80325e-006 ++to 5.80325e-006
Heightened Def Con from 5.80326e-006 to 5.80526e-006
Heightened Def Con from 5.80552e-006 to 5.80652e-006
Heightened Def Con from 5.80652e-006 to 5.80654e-006
Heightened Def Con from 5.80654e-006 +to 5.80654e-006
Heightened Def Con from 5.80654e-006 ++to 5.80654e-006
Heightened Def Con from 5.80654e-006 to 5.80654e-006
Heightened Def Con from 5.80654e-006 to 5.80754e-006
Heightened Def Con from 5.80754e-006 to 5.80754e-006
Heightened Def Con from 5.80755e-006 ++to 5.80756e-006
Heightened Def Con from 5.80756e-006 to 5.80757e-006
Heightened Def Con from 5.80757e-006 ++++to 5.80757e-006
Heightened Def Con from 5.80757e-006 to 5.80771e-006
Heightened Def Con from 5.80771e-006 +to 5.80771e-006
Heightened Def Con from 5.80771e-006 to 5.80773e-006
Heightened Def Con from 5.80773e-006 to 5.80773e-006
Heightened Def Con from 5.80773e-006 +to 5.80773e-006
Heightened Def Con from 5.80773e-006 to 5.80773e-006
Heightened Def Con from 5.80773e-006 +to 5.80873e-006
Heightened Def Con from 5.80873e-006 to 5.80875e-006
Heightened Def Con from 5.80875e-006 to 5.80877e-006
Heightened Def Con from 5.80877e-006 to 5.80878e-006
Heightened Def Con from 5.80878e-006 to 5.80878e-006
Heightened Def Con from 5.80878e-006 +to 5.80881e-006
Heightened Def Con from 5.80881e-006 +to 5.80894e-006
Heightened Def Con from 5.80895e-006 to 5.80896e-006
Heightened Def Con from 5.80896e-006 to 5.80896e-006
Heightened Def Con from 5.80896e-006 to 5.80896e-006
Heightened Def Con from 5.80896e-006 +++to 5.80896e-006
Heightened Def Con from 5.80896e-006 to 5.80896e-006
Heightened Def Con from 5.80896e-006 to 5.80898e-006
Heightened Def Con from 5.80898e-006 +to 5.809e-006
Heightened Def Con from 5.809e-006 to 5.809e-006
Heightened Def Con from 5.80901e-006 +to 5.80903e-006
Heightened Def Con from 5.80903e-006 to 5.80905e-006
Heightened Def Con from 5.80905e-006 to 5.80905e-006
Heightened Def Con from 5.80905e-006 to 5.80906e-006
Heightened Def Con from 5.80906e-006 +to 5.81006e-006
Heightened Def Con from 5.81006e-006 ++to 5.81008e-006
Heightened Def Con from 5.81008e-006 to 5.8102e-006
Heightened Def Con from 5.81021e-006 +to 5.81022e-006
Heightened Def Con from 5.81025e-006 to 5.81026e-006
Heightened Def Con from 5.81026e-006 to 5.81026e-006
Heightened Def Con from 5.81027e-006 to 5.81028e-006
Heightened Def Con from 5.81028e-006 to 5.81028e-006
Heightened Def Con from 5.81029e-006 +to 5.8103e-006
Heightened Def Con from 5.81034e-006 +to 5.81034e-006
Heightened Def Con from 5.81034e-006 to 5.81034e-006
Heightened Def Con from 5.81034e-006 +++to 5.81134e-006
Heightened Def Con from 5.81134e-006 +to 5.81134e-006
Heightened Def Con from 5.81134e-006 to 5.81136e-006
Heightened Def Con from 5.81136e-006 to 5.81136e-006
Heightened Def Con from 5.81136e-006 +to 5.81336e-006

Date: Fri Sep 01 13:46:45 2017
Total elapsed time: 385.521 seconds.

tnom = 27
temp = 27
method = modified trap
totiter = 5483268
traniter = 5481051
tranpoints = 529736
accept = 105977
rejected = 463087
matrix size = 157
fillins = 796
solver = Normal
Thread vector: 42.7/32.8[4] 23.1/10.0[4] 15.8/7.6[4] 1.7/134.3[1]  2592/500
Matrix Compiler1: 104.53 KB object code size  28.4/18.3/[12.7]
Matrix Compiler2:    1952 opcodes  5.5/[5.7]/25.5


