Circuit: * C:\Users\Titus\Desktop\TP-Circuitos-2\TP1\simulacion\circuito.asc

Warning: Multiple definitions of model "bc548b" Type: BJT
Early termination of direct N-R iteration.
Direct Newton iteration failed to find .op point.  (Use ".option noopiter" to skip.)
Starting Gmin stepping
Gmin = 10
vernier = 0.5
vernier = 0.25
vernier = 0.125
Gmin = 5.5165
vernier = 0.0625
vernier = 0.03125
vernier = 0.015625
vernier = 0.0078125
Gmin = 5.49501
vernier = 0.00390625
vernier = 0.00195313
vernier = 0.000976563
vernier = 0.000488281
Gmin = 5.50104
Gmin = 0
Gmin stepping failed

Starting source stepping with srcstepmethod=0
Source Step = 3.0303%
Source Step = 33.3333%
Source Step = 63.6364%
Source Step = 93.9394%
Source stepping succeeded in finding the operating point.

Ignoring empty pin current: Ix(u2:11)
Ignoring empty pin current: Ix(u2:11)

Date: Tue Aug 29 16:05:24 2017
Total elapsed time: 0.519 seconds.

tnom = 27
temp = 27
method = modified trap
totiter = 4176
traniter = 2425
tranpoints = 1204
accept = 1204
rejected = 0
matrix size = 117
fillins = 403
solver = Normal
Matrix Compiler1: 39.79 KB object code size  12.9/8.2/[3.4]
Matrix Compiler2: off  [3.9]/4.5/18.1


