Circuit: * C:\Users\Titus\Desktop\TP-Circuitos-2\TP1\simulacion\circuito_reemplazo.asc

Warning: Multiple definitions of model "bc548b" Type: BJT
Early termination of direct N-R iteration.
Direct Newton iteration failed to find .op point.  (Use ".option noopiter" to skip.)
Starting Gmin stepping
Gmin = 10
vernier = 0.5
vernier = 0.25
vernier = 0.125
Gmin = 6.68666
vernier = 0.0625
vernier = 0.03125
vernier = 0.015625
vernier = 0.0078125
Gmin = 6.72377
vernier = 0.00390625
vernier = 0.00195313
vernier = 0.000976563
vernier = 0.000488281
Gmin = 6.72131
Gmin = 0
Gmin stepping failed

Starting source stepping with srcstepmethod=0
Source Step = 3.0303%
Source Step = 33.3333%
Source Step = 63.6364%
Source Step = 93.9394%
Source stepping succeeded in finding the operating point.

Ignoring empty pin current: Ix(u2:11)
Ignoring empty pin current: Ix(u2:11)

Date: Tue Aug 29 19:55:50 2017
Total elapsed time: 1.611 seconds.

tnom = 27
temp = 27
method = modified trap
totiter = 4127
traniter = 2095
tranpoints = 1042
accept = 1042
rejected = 0
matrix size = 156
fillins = 779
solver = Normal
Thread vector: 65.3/48.2[4] 23.7/9.7[4] 12.7/6.1[4] 1.9/30.8[1]  2592/500
Matrix Compiler1: 95.25 KB object code size  33.6/17.9/[10.0]
Matrix Compiler2: off  [5.4]/5.7/25.9


