Circuit: * C:\Users\Titus\Desktop\TP-Circuitos-2\TP1\simulacion\circuito_reemplazo.asc

Warning: Multiple definitions of model "bc548b" Type: BJT
Early termination of direct N-R iteration.
Direct Newton iteration failed to find .op point.  (Use ".option noopiter" to skip.)
Starting Gmin stepping
Gmin = 10
vernier = 0.5
vernier = 0.25
vernier = 0.125
Gmin = 6.68666
vernier = 0.0625
vernier = 0.03125
vernier = 0.015625
vernier = 0.0078125
Gmin = 6.72377
vernier = 0.00390625
vernier = 0.00195313
vernier = 0.000976563
vernier = 0.000488281
Gmin = 6.72131
Gmin = 0
Gmin stepping failed

Starting source stepping with srcstepmethod=0
Source Step = 3.0303%
Source Step = 23.4848%
Source Step = 31.0606%
Source Step = 38.6364%
Source Step = 46.2121%
Source Step = 53.7879%
vernier = 0.375
Source Step = 62.1212%
Source Step = 73.4848%
Source Step = 84.8485%
Source Step = 96.2121%
Source stepping succeeded in finding the operating point.

Ignoring empty pin current: Ix(u2:11)
Ignoring empty pin current: Ix(u2:11)
Changing Tseed to 9.76562e-010
Changing Tseed to 9.76562e-012
Changing Tseed to 9.76562e-009
Heightened Def Con from 9.76562e-009 to 9.76758e-009
Heightened Def Con from 9.76776e-009 +to 1.07678e-008
Heightened Def Con from 1.07678e-008 to 1.27678e-008
Heightened Def Con from 1.27693e-008 to 1.37693e-008
Heightened Def Con from 1.37693e-008 +to 1.47849e-008
Heightened Def Con from 1.47864e-008 +to 1.57864e-008
Heightened Def Con from 1.5787e-008 to 1.5787e-008
Heightened Def Con from 1.5787e-008 +to 1.6787e-008
Heightened Def Con from 1.67875e-008 to 1.67895e-008
Heightened Def Con from 1.67934e-008 ++to 1.7809e-008
Heightened Def Con from 1.78105e-008 +++to 1.78107e-008
Heightened Def Con from 1.78107e-008 ++to 1.78109e-008
Heightened Def Con from 1.7811e-008 to 1.88112e-008
Heightened Def Con from 1.88117e-008 to 1.98274e-008
Heightened Def Con from 1.98667e-008 to 1.98667e-008
Heightened Def Con from 1.98667e-008 to 1.98669e-008
Heightened Def Con from 1.98669e-008 to 1.98689e-008
Heightened Def Con from 1.98691e-008 to 1.98691e-008
Heightened Def Con from 1.98691e-008 +to 2.18691e-008
Heightened Def Con from 2.18691e-008 +to 2.19941e-008
Heightened Def Con from 2.19941e-008 +to 2.30117e-008
Heightened Def Con from 2.30156e-008 +to 2.40156e-008
Heightened Def Con from 2.40173e-008 to 2.40329e-008
Heightened Def Con from 2.41267e-008 to 2.41267e-008
Heightened Def Con from 2.41267e-008 to 2.51423e-008
Heightened Def Con from 2.51736e-008 to 2.51892e-008
Heightened Def Con from 2.51893e-008 to 2.51912e-008
Heightened Def Con from 2.51912e-008 to 2.51915e-008
Heightened Def Con from 2.51915e-008 to 2.51937e-008
Heightened Def Con from 2.51937e-008 to 2.51938e-008
Heightened Def Con from 2.51938e-008 to 2.52097e-008
Heightened Def Con from 2.52099e-008 ++to 2.62099e-008
Heightened Def Con from 2.62104e-008 to 2.62123e-008
Heightened Def Con from 2.62123e-008 to 2.62124e-008
Heightened Def Con from 2.62124e-008 +to 2.63374e-008
Heightened Def Con from 2.63374e-008 to 2.63377e-008
Heightened Def Con from 2.63377e-008 to 2.6338e-008
Heightened Def Con from 2.63381e-008 +to 2.63381e-008
Heightened Def Con from 2.63381e-008 to 2.6354e-008
Heightened Def Con from 2.6354e-008 to 2.6356e-008
Heightened Def Con from 2.6356e-008 to 2.73562e-008
Heightened Def Con from 2.73562e-008 to 2.73582e-008
Heightened Def Con from 2.73622e-008 to 2.73625e-008
Heightened Def Con from 2.73627e-008 to 2.73629e-008
Heightened Def Con from 2.73634e-008 to 2.73636e-008
Heightened Def Con from 2.73636e-008 +to 2.83636e-008
Heightened Def Con from 2.83641e-008 +to 2.83798e-008
Heightened Def Con from 2.84112e-008 to 2.84134e-008
Heightened Def Con from 2.84134e-008 +to 2.84136e-008
Heightened Def Con from 2.84136e-008 to 2.84138e-008
Heightened Def Con from 2.84139e-008 +to 2.94139e-008
Heightened Def Con from 2.94725e-008 to 2.94745e-008
Heightened Def Con from 2.94749e-008 +to 2.94906e-008
Heightened Def Con from 2.95219e-008 to 2.95222e-008
Heightened Def Con from 2.95222e-008 ++to 2.95242e-008
Heightened Def Con from 2.95281e-008 +to 2.95437e-008
Heightened Def Con from 2.95443e-008 +to 2.95463e-008
Heightened Def Con from 2.95468e-008 to 2.95487e-008
Heightened Def Con from 2.95487e-008 +to 2.95507e-008
Heightened Def Con from 2.95513e-008 to 2.95533e-008
Heightened Def Con from 2.95534e-008 to 2.95691e-008
Heightened Def Con from 2.95691e-008 to 2.9571e-008
Heightened Def Con from 2.95719e-008 to 2.95738e-008
Heightened Def Con from 2.95812e-008 to 2.95968e-008
Heightened Def Con from 2.95974e-008 to 2.95976e-008
Heightened Def Con from 2.95982e-008 to 3.06002e-008
Heightened Def Con from 3.06008e-008 to 3.06011e-008
Heightened Def Con from 3.06011e-008 to 3.06011e-008
Heightened Def Con from 3.06011e-008 to 3.0603e-008
Heightened Def Con from 3.06079e-008 to 3.06235e-008
Heightened Def Con from 3.06258e-008 to 3.06414e-008
Heightened Def Con from 3.0642e-008 +to 3.06576e-008
Heightened Def Con from 3.06584e-008 to 3.06604e-008
Heightened Def Con from 3.06604e-008 to 3.06623e-008
Heightened Def Con from 3.06623e-008 to 3.06626e-008
Heightened Def Con from 3.06644e-008 to 3.16646e-008
Heightened Def Con from 3.16647e-008 to 3.16666e-008
Heightened Def Con from 3.16666e-008 to 3.16686e-008
Heightened Def Con from 3.16726e-008 +to 3.16745e-008
Heightened Def Con from 3.16752e-008 to 3.16752e-008
Heightened Def Con from 3.16752e-008 +to 3.26908e-008
Heightened Def Con from 3.26909e-008 to 3.26911e-008
Heightened Def Con from 3.26926e-008 to 3.26945e-008
Heightened Def Con from 3.26946e-008 to 3.26949e-008
Heightened Def Con from 3.26949e-008 ++to 3.26969e-008
Heightened Def Con from 3.26974e-008 to 3.26976e-008
Heightened Def Con from 3.26976e-008 +to 3.36976e-008
Heightened Def Con from 3.37016e-008 to 3.37036e-008
Heightened Def Con from 3.37036e-008 to 3.37039e-008
Heightened Def Con from 3.37039e-008 to 3.37059e-008
Heightened Def Con from 3.3706e-008 to 3.37062e-008
Heightened Def Con from 3.37067e-008 to 3.37069e-008
Heightened Def Con from 3.3707e-008 ++to 3.37109e-008
Heightened Def Con from 3.37109e-008 to 3.38359e-008
Heightened Def Con from 3.38364e-008 +to 3.38366e-008
Heightened Def Con from 3.38367e-008 +to 3.38523e-008
Heightened Def Con from 3.38524e-008 to 3.38544e-008
Heightened Def Con from 3.38865e-008 to 3.39177e-008
Heightened Def Con from 3.40132e-008 to 3.50152e-008
Heightened Def Con from 3.50259e-008 +to 3.50279e-008
Heightened Def Con from 3.50318e-008 ++to 3.50474e-008
Heightened Def Con from 3.50788e-008 to 3.52041e-008
Heightened Def Con from 3.52075e-008 +to 3.52094e-008
Heightened Def Con from 3.52128e-008 to 3.52131e-008
Heightened Def Con from 3.52165e-008 to 3.52165e-008
Heightened Def Con from 3.52165e-008 +to 3.62185e-008
Heightened Def Con from 3.62224e-008 +to 3.62244e-008
Heightened Def Con from 3.62245e-008 to 3.62404e-008
Heightened Def Con from 3.62406e-008 to 3.62425e-008
Heightened Def Con from 3.62425e-008 +to 3.72425e-008
Heightened Def Con from 3.92425e-008 to 4.02425e-008
Heightened Def Con from 4.02425e-008 to 4.02582e-008
Heightened Def Con from 4.02582e-008 to 4.02584e-008
Heightened Def Con from 4.02618e-008 to 4.02638e-008
Heightened Def Con from 4.02652e-008 to 4.02655e-008
Heightened Def Con from 4.02672e-008 to 4.02674e-008
Heightened Def Con from 4.02674e-008 to 4.12694e-008
Heightened Def Con from 4.12699e-008 to 4.12718e-008
Heightened Def Con from 4.12723e-008 +to 4.12743e-008
Heightened Def Con from 4.12743e-008 +to 4.12899e-008
Heightened Def Con from 4.12914e-008 to 4.2307e-008
Heightened Def Con from 4.23382e-008 to 4.23402e-008
Heightened Def Con from 4.23407e-008 to 4.33409e-008
Heightened Def Con from 4.33414e-008 to 4.33415e-008
Heightened Def Con from 4.33415e-008 +to 4.43415e-008
Heightened Def Con from 4.4342e-008 to 4.43439e-008
Heightened Def Con from 4.4344e-008 to 4.43752e-008
Heightened Def Con from 4.43754e-008 to 4.43774e-008
Heightened Def Con from 4.43775e-008 to 4.53778e-008
Heightened Def Con from 4.53778e-008 to 4.53797e-008
Heightened Def Con from 4.53812e-008 +to 4.63831e-008
Heightened Def Con from 4.63872e-008 to 4.64028e-008
Heightened Def Con from 4.64028e-008 +to 4.64184e-008
Heightened Def Con from 4.64497e-008 to 4.74497e-008
Heightened Def Con from 4.74529e-008 +to 4.74686e-008
Heightened Def Con from 4.747e-008 to 4.74703e-008
Heightened Def Con from 4.74703e-008 to 4.74859e-008
Heightened Def Con from 4.74908e-008 to 4.7491e-008
Heightened Def Con from 4.74916e-008 to 4.74919e-008
Heightened Def Con from 4.74923e-008 to 4.74923e-008
Heightened Def Con from 4.74923e-008 to 4.7508e-008
Heightened Def Con from 4.75083e-008 to 4.75239e-008
Heightened Def Con from 4.75239e-008 ++to 4.75395e-008
Heightened Def Con from 4.75395e-008 to 4.75415e-008
Heightened Def Con from 4.75415e-008 ++to 4.75571e-008
Heightened Def Con from 4.75576e-008 +to 4.75578e-008
Heightened Def Con from 4.75579e-008 to 4.75735e-008
Heightened Def Con from 4.75775e-008 to 4.75776e-008
Heightened Def Con from 4.75776e-008 to 4.75778e-008
Heightened Def Con from 4.75795e-008 to 4.75951e-008
Heightened Def Con from 4.76297e-008 to 4.76317e-008
Heightened Def Con from 4.76317e-008 to 4.76337e-008
Heightened Def Con from 4.76342e-008 to 4.76498e-008
Heightened Def Con from 4.76498e-008 to 4.765e-008
Heightened Def Con from 4.765e-008 to 4.7652e-008
Heightened Def Con from 4.76524e-008 +to 4.76544e-008
Heightened Def Con from 4.76544e-008 to 4.76544e-008
Heightened Def Con from 4.76544e-008 to 4.76563e-008
Heightened Def Con from 4.76564e-008 +to 4.76584e-008
Heightened Def Con from 4.76584e-008 +to 4.86584e-008
Heightened Def Con from 5.06589e-008 to 5.06592e-008
Heightened Def Con from 5.06593e-008 +to 5.0675e-008
Heightened Def Con from 5.06764e-008 to 5.06921e-008
Heightened Def Con from 5.06925e-008 +to 5.07081e-008
Heightened Def Con from 5.07089e-008 to 5.07092e-008
Heightened Def Con from 5.07092e-008 +to 5.07248e-008
Heightened Def Con from 5.07562e-008 to 5.17564e-008
Heightened Def Con from 5.17565e-008 to 5.17723e-008
Heightened Def Con from 5.17728e-008 +to 5.17731e-008
Heightened Def Con from 5.17731e-008 to 5.17888e-008
Heightened Def Con from 5.17888e-008 to 5.18044e-008
Heightened Def Con from 5.18044e-008 to 5.18201e-008
Heightened Def Con from 5.18201e-008 to 5.18203e-008
Heightened Def Con from 5.18209e-008 to 5.18366e-008
Heightened Def Con from 5.18406e-008 to 5.18425e-008
Heightened Def Con from 5.18502e-008 to 5.18503e-008
Heightened Def Con from 5.18503e-008 to 5.18503e-008
Heightened Def Con from 5.18503e-008 +to 5.18522e-008
Heightened Def Con from 5.18528e-008 +++to 5.18685e-008
Heightened Def Con from 5.18685e-008 to 5.18687e-008
Heightened Def Con from 5.18687e-008 +to 5.18707e-008
Heightened Def Con from 5.18712e-008 to 5.18731e-008
Heightened Def Con from 5.18731e-008 to 5.18887e-008
Heightened Def Con from 5.192e-008 ++to 5.19356e-008
Heightened Def Con from 5.19747e-008 +to 5.19903e-008
Heightened Def Con from 5.19904e-008 +to 5.2006e-008
Heightened Def Con from 5.21017e-008 to 5.21036e-008
Heightened Def Con from 5.21037e-008 +to 5.31037e-008
Heightened Def Con from 5.31052e-008 ++to 5.41052e-008
Heightened Def Con from 5.41052e-008 to 5.41054e-008
Heightened Def Con from 5.41054e-008 +to 5.41055e-008
Heightened Def Con from 5.41055e-008 to 5.51057e-008
Heightened Def Con from 5.51057e-008 +++to 5.71057e-008
Heightened Def Con from 5.71062e-008 ++to 5.71065e-008
Heightened Def Con from 5.71065e-008 to 5.71065e-008
Heightened Def Con from 5.71065e-008 +to 5.71068e-008
Heightened Def Con from 5.71068e-008 to 5.71071e-008
Heightened Def Con from 5.71076e-008 +to 5.81095e-008
Heightened Def Con from 5.81096e-008 +to 5.81252e-008
Heightened Def Con from 5.81253e-008 to 5.81272e-008
Heightened Def Con from 5.81323e-008 +to 5.81326e-008
Heightened Def Con from 5.81326e-008 to 5.81326e-008
Heightened Def Con from 5.81326e-008 +to 5.81346e-008
Heightened Def Con from 5.81346e-008 to 5.81503e-008
Heightened Def Con from 5.81503e-008 +++to 5.81522e-008
Heightened Def Con from 5.81562e-008 to 5.91582e-008
Heightened Def Con from 5.91719e-008 to 5.91875e-008
Heightened Def Con from 5.9188e-008 +to 5.92056e-008
Heightened Def Con from 5.92095e-008 to 5.92095e-008
Heightened Def Con from 5.92095e-008 to 5.92251e-008
Heightened Def Con from 5.92251e-008 to 5.92254e-008
Heightened Def Con from 5.92254e-008 to 5.9366e-008
Heightened Def Con from 5.9366e-008 ++to 5.93816e-008
Heightened Def Con from 5.93872e-008 to 6.03892e-008
Heightened Def Con from 6.03892e-008 +to 6.03894e-008
Heightened Def Con from 6.03894e-008 to 6.03895e-008
Heightened Def Con from 6.03895e-008 +to 6.04051e-008
Heightened Def Con from 6.04363e-008 to 6.05613e-008
Heightened Def Con from 6.05613e-008 ++to 6.05633e-008
Heightened Def Con from 6.05638e-008 to 6.0564e-008
Heightened Def Con from 6.0564e-008 +to 6.0566e-008
Heightened Def Con from 6.057e-008 +to 6.0572e-008
Heightened Def Con from 6.0572e-008 to 6.05876e-008
Heightened Def Con from 6.05876e-008 to 6.06032e-008
Heightened Def Con from 6.06041e-008 to 6.16198e-008
Heightened Def Con from 6.16203e-008 to 6.16222e-008
Heightened Def Con from 6.16227e-008 +to 6.16229e-008
Heightened Def Con from 6.16234e-008 +to 6.16391e-008
Heightened Def Con from 6.16391e-008 to 6.16413e-008
Heightened Def Con from 6.16413e-008 +to 6.26413e-008
Heightened Def Con from 6.26413e-008 +to 6.27663e-008
Heightened Def Con from 6.27665e-008 to 6.27667e-008
Heightened Def Con from 6.27667e-008 to 6.27687e-008
Heightened Def Con from 6.27804e-008 to 6.27807e-008
Heightened Def Con from 6.27807e-008 to 6.37809e-008
Heightened Def Con from 6.37809e-008 to 6.37809e-008
Heightened Def Con from 6.37809e-008 +to 6.37966e-008
Heightened Def Con from 6.37966e-008 +to 6.38142e-008
Heightened Def Con from 6.38532e-008 to 6.38689e-008
Heightened Def Con from 6.39031e-008 to 6.3919e-008
Heightened Def Con from 6.39195e-008 to 6.39351e-008
Heightened Def Con from 6.39493e-008 to 6.39513e-008
Heightened Def Con from 6.39552e-008 to 6.39554e-008
Heightened Def Con from 6.39554e-008 to 6.39557e-008
Heightened Def Con from 6.39562e-008 +++to 6.39564e-008
Heightened Def Con from 6.39564e-008 +to 6.39584e-008
Heightened Def Con from 6.3972e-008 to 6.3974e-008
Heightened Def Con from 6.39753e-008 to 6.39773e-008
Heightened Def Con from 6.39773e-008 to 6.39795e-008
Heightened Def Con from 6.39796e-008 to 6.39952e-008
Heightened Def Con from 6.39952e-008 to 6.41202e-008
Heightened Def Con from 6.41888e-008 +to 6.41908e-008
Heightened Def Con from 6.41922e-008 to 6.42079e-008
Heightened Def Con from 6.42084e-008 to 6.42086e-008
Heightened Def Con from 6.42091e-008 to 6.42111e-008
Heightened Def Con from 6.42111e-008 +to 6.4213e-008
Heightened Def Con from 6.4213e-008 to 6.42287e-008
Heightened Def Con from 6.42293e-008 to 6.42295e-008
Heightened Def Con from 6.4231e-008 to 6.42329e-008
Heightened Def Con from 6.42446e-008 to 6.42603e-008
Heightened Def Con from 6.42603e-008 +to 6.62603e-008
Heightened Def Con from 6.62604e-008 to 6.6278e-008
Heightened Def Con from 6.62823e-008 +to 6.62842e-008
Heightened Def Con from 6.62859e-008 to 6.72879e-008
Heightened Def Con from 6.72884e-008 to 6.72903e-008
Heightened Def Con from 6.72903e-008 to 6.72906e-008
Heightened Def Con from 6.72906e-008 to 6.72906e-008
Heightened Def Con from 6.72906e-008 to 6.73082e-008
Heightened Def Con from 6.73082e-008 to 6.73238e-008
Heightened Def Con from 6.73238e-008 +++to 6.73394e-008
Heightened Def Con from 6.73399e-008 +to 6.73575e-008
Heightened Def Con from 6.73577e-008 +to 6.73596e-008
Heightened Def Con from 6.73601e-008 to 6.83621e-008
Heightened Def Con from 6.8366e-008 to 6.83816e-008
Heightened Def Con from 6.83816e-008 to 6.83972e-008
Heightened Def Con from 6.83972e-008 to 6.93992e-008
Heightened Def Con from 6.93998e-008 to 6.93998e-008
Heightened Def Con from 6.93998e-008 to 7.04018e-008
Heightened Def Con from 7.04018e-008 to 7.0402e-008
Heightened Def Con from 7.0402e-008 to 7.0404e-008
Heightened Def Con from 7.04057e-008 to 7.04057e-008
Heightened Def Con from 7.04057e-008 +to 7.04233e-008
Heightened Def Con from 7.04233e-008 to 7.04252e-008
Heightened Def Con from 7.04252e-008 to 7.04272e-008
Heightened Def Con from 7.04273e-008 to 7.04429e-008
Heightened Def Con from 7.04457e-008 to 7.04457e-008
Heightened Def Con from 7.04457e-008 to 7.0446e-008
Heightened Def Con from 7.0446e-008 to 7.04773e-008
Heightened Def Con from 7.04812e-008 to 7.04831e-008
Heightened Def Con from 7.04849e-008 to 7.04849e-008
Heightened Def Con from 7.04849e-008 +to 7.04851e-008
Heightened Def Con from 7.04851e-008 to 7.04854e-008
Heightened Def Con from 7.04859e-008 to 7.05015e-008
Heightened Def Con from 7.05015e-008 to 7.05016e-008
Heightened Def Con from 7.05016e-008 to 7.05192e-008
Heightened Def Con from 7.05231e-008 to 7.0525e-008
Heightened Def Con from 7.0525e-008 to 7.0527e-008
Heightened Def Con from 7.05309e-008 to 7.05309e-008
Heightened Def Con from 7.05309e-008 to 7.05329e-008
Heightened Def Con from 7.05368e-008 to 7.1537e-008
Heightened Def Con from 7.1537e-008 to 7.1537e-008
Heightened Def Con from 7.1537e-008 ++to 7.2537e-008
Heightened Def Con from 7.25419e-008 to 7.25575e-008
Heightened Def Con from 7.25985e-008 to 7.26142e-008
Heightened Def Con from 7.26148e-008 +to 7.26167e-008
Heightened Def Con from 7.26182e-008 +to 7.26201e-008
Heightened Def Con from 7.26206e-008 to 7.26209e-008
Heightened Def Con from 7.26211e-008 to 7.2623e-008
Heightened Def Con from 7.2627e-008 to 7.2629e-008
Heightened Def Con from 7.2629e-008 +to 7.26309e-008
Heightened Def Con from 7.26344e-008 to 7.26363e-008
Heightened Def Con from 7.26395e-008 to 7.26414e-008
Heightened Def Con from 7.26415e-008 +to 7.26415e-008
Heightened Def Con from 7.26415e-008 +to 7.26418e-008
Heightened Def Con from 7.26418e-008 ++to 7.36418e-008
Heightened Def Con from 7.36419e-008 +to 7.36595e-008
Heightened Def Con from 7.36595e-008 to 7.36597e-008
Heightened Def Con from 7.36601e-008 to 7.3676e-008
Heightened Def Con from 7.3676e-008 to 7.36916e-008
Heightened Def Con from 7.36916e-008 to 7.36936e-008
Heightened Def Con from 7.37009e-008 to 7.37012e-008
Heightened Def Con from 7.37046e-008 to 7.37046e-008
Heightened Def Con from 7.37046e-008 ++to 7.37085e-008
Heightened Def Con from 7.37202e-008 +to 7.37358e-008
Heightened Def Con from 7.37359e-008 to 7.37359e-008
Heightened Def Con from 7.37359e-008 to 7.37362e-008
Heightened Def Con from 7.37368e-008 to 7.47524e-008
Heightened Def Con from 7.47575e-008 to 7.47731e-008
Heightened Def Con from 7.47736e-008 ++to 7.48986e-008
Heightened Def Con from 7.49307e-008 to 7.49307e-008
Heightened Def Con from 7.49307e-008 to 7.4931e-008
Heightened Def Con from 7.4931e-008 +to 7.49466e-008
Heightened Def Con from 7.49505e-008 to 7.49661e-008
Heightened Def Con from 7.49676e-008 to 7.49676e-008
Heightened Def Con from 7.49676e-008 +to 7.59696e-008
Heightened Def Con from 7.59696e-008 to 7.59855e-008
Heightened Def Con from 7.59855e-008 +to 7.59875e-008
Heightened Def Con from 7.59884e-008 +++to 7.59903e-008
Heightened Def Con from 7.59903e-008 ++to 7.59923e-008
Heightened Def Con from 7.59963e-008 to 7.59965e-008
Heightened Def Con from 7.59967e-008 to 7.6122e-008
Heightened Def Con from 7.6122e-008 to 7.6122e-008
Heightened Def Con from 7.6122e-008 ++to 7.61376e-008
Heightened Def Con from 7.61378e-008 +to 7.71398e-008
Heightened Def Con from 7.71398e-008 to 7.72804e-008
Heightened Def Con from 7.7281e-008 to 7.72967e-008
Heightened Def Con from 7.73006e-008 +to 7.73025e-008
Heightened Def Con from 7.73026e-008 +to 7.73026e-008
Heightened Def Con from 7.73026e-008 to 7.73026e-008
Heightened Def Con from 7.73026e-008 to 7.73065e-008
Heightened Def Con from 7.73065e-008 to 7.73085e-008
Heightened Def Con from 7.73091e-008 to 7.8311e-008
Heightened Def Con from 7.8311e-008 ++to 7.9311e-008
Heightened Def Con from 8.53117e-008 to 8.53137e-008
Heightened Def Con from 8.5341e-008 to 8.53566e-008
Heightened Def Con from 8.53889e-008 to 8.54045e-008
Heightened Def Con from 8.54049e-008 to 8.54051e-008
Heightened Def Con from 8.54052e-008 to 8.54054e-008
Heightened Def Con from 8.54054e-008 to 8.54211e-008
Heightened Def Con from 8.54211e-008 to 8.5437e-008
Heightened Def Con from 8.5437e-008 +to 8.54526e-008
Heightened Def Con from 8.54528e-008 +to 8.64528e-008
Heightened Def Con from 8.64528e-008 +to 8.6453e-008
Heightened Def Con from 8.6457e-008 +to 8.74573e-008
Heightened Def Con from 8.74692e-008 ++to 8.84692e-008
Heightened Def Con from 8.84697e-008 to 8.84717e-008
Heightened Def Con from 8.84717e-008 +to 8.84737e-008
Heightened Def Con from 8.84754e-008 to 8.8493e-008
Heightened Def Con from 8.84939e-008 to 8.84941e-008
Heightened Def Con from 8.84943e-008 +to 8.86193e-008
Heightened Def Con from 8.86193e-008 to 8.86193e-008
Heightened Def Con from 8.86193e-008 to 8.86232e-008
Heightened Def Con from 8.86247e-008 +to 8.86249e-008
Heightened Def Con from 8.86249e-008 ++++++to 8.96249e-008
Heightened Def Con from 8.96289e-008 to 8.96309e-008
Heightened Def Con from 8.96328e-008 +to 8.96641e-008
Heightened Def Con from 8.96641e-008 to 8.96643e-008
Heightened Def Con from 8.96643e-008 to 8.96643e-008
Heightened Def Con from 8.96643e-008 to 8.96802e-008
Heightened Def Con from 8.96807e-008 +to 8.96827e-008
Heightened Def Con from 8.96827e-008 +++to 8.96986e-008
Heightened Def Con from 8.96992e-008 +to 9.07148e-008
Heightened Def Con from 9.07539e-008 +to 9.07852e-008
Heightened Def Con from 9.07866e-008 ++to 9.08023e-008
Heightened Def Con from 9.08028e-008 to 9.08047e-008
Heightened Def Con from 9.08117e-008 to 9.08137e-008
Heightened Def Con from 9.08142e-008 to 9.08161e-008
Heightened Def Con from 9.08161e-008 ++to 9.18161e-008
Heightened Def Con from 9.38806e-008 +to 9.38826e-008
Heightened Def Con from 9.38826e-008 +to 9.38826e-008
Heightened Def Con from 9.38826e-008 +to 9.40096e-008
Heightened Def Con from 9.40096e-008 to 9.50096e-008
Heightened Def Con from 9.50096e-008 +to 9.60096e-008
Heightened Def Con from 9.60098e-008 to 9.60117e-008
Heightened Def Con from 9.60118e-008 +to 9.60137e-008
Heightened Def Con from 9.6018e-008 to 9.60492e-008
Heightened Def Con from 9.60532e-008 to 9.60688e-008
Heightened Def Con from 9.60688e-008 to 9.60707e-008
Heightened Def Con from 9.60748e-008 +to 9.60767e-008
Heightened Def Con from 9.60812e-008 +to 9.60812e-008
Heightened Def Con from 9.60812e-008 to 9.60988e-008
Heightened Def Con from 9.60988e-008 +to 9.61144e-008
Heightened Def Con from 9.61466e-008 to 9.61469e-008
Heightened Def Con from 9.61469e-008 to 9.61781e-008
Heightened Def Con from 9.62106e-008 ++to 9.72125e-008
Heightened Def Con from 9.72174e-008 to 9.72331e-008
Heightened Def Con from 9.72331e-008 to 9.7235e-008
Heightened Def Con from 9.72399e-008 to 9.72555e-008
Heightened Def Con from 9.72806e-008 +++to 9.72962e-008
Heightened Def Con from 9.73275e-008 to 9.73294e-008
Heightened Def Con from 9.73295e-008 to 9.73314e-008
Heightened Def Con from 9.73319e-008 +to 9.73338e-008
Heightened Def Con from 9.73338e-008 to 9.73358e-008
Heightened Def Con from 9.73358e-008 to 9.73514e-008
Heightened Def Con from 9.73514e-008 +++to 9.73517e-008
Heightened Def Con from 9.73603e-008 to 9.73779e-008
Heightened Def Con from 9.73779e-008 to 9.73782e-008
Heightened Def Con from 9.73782e-008 to 9.73801e-008
Heightened Def Con from 9.73801e-008 to 9.73957e-008
Heightened Def Con from 9.73957e-008 ++to 9.73958e-008
Heightened Def Con from 9.73958e-008 +to 9.74114e-008
Heightened Def Con from 9.74505e-008 to 9.74661e-008
Heightened Def Con from 9.75111e-008 +++to 9.75131e-008
Heightened Def Con from 9.75136e-008 to 9.75138e-008
Heightened Def Con from 9.75138e-008 +to 9.75294e-008
Heightened Def Con from 9.75299e-008 +to 9.75319e-008
Heightened Def Con from 9.75319e-008 to 9.75338e-008
Heightened Def Con from 9.75338e-008 +to 9.75358e-008
Heightened Def Con from 9.7536e-008 +++to 9.75362e-008
Heightened Def Con from 9.75362e-008 ++to 9.76612e-008
Heightened Def Con from 9.76617e-008 to 9.76637e-008
Heightened Def Con from 9.76842e-008 to 9.76999e-008
Heightened Def Con from 9.76999e-008 +to 9.77175e-008
Heightened Def Con from 9.77557e-008 to 9.78827e-008
Heightened Def Con from 9.78833e-008 to 9.78835e-008
Heightened Def Con from 9.7884e-008 +to 9.7886e-008
Heightened Def Con from 9.78977e-008 ++to 9.79136e-008
Heightened Def Con from 9.79452e-008 to 9.79472e-008
Heightened Def Con from 9.79545e-008 +to 9.79547e-008
Heightened Def Con from 9.79564e-008 to 9.79567e-008
Heightened Def Con from 9.7964e-008 to 9.89796e-008
Heightened Def Con from 9.90109e-008 to 9.90128e-008
Heightened Def Con from 9.90143e-008 to 9.90163e-008
Heightened Def Con from 9.90163e-008 ++to 1.00017e-007
Heightened Def Con from 1.00017e-007 to 1.00017e-007
Heightened Def Con from 1.00017e-007 to 1.01032e-007
Heightened Def Con from 1.01032e-007 +to 1.01032e-007
Heightened Def Con from 1.01032e-007 to 1.0105e-007
Heightened Def Con from 1.01054e-007 +to 1.01056e-007
Heightened Def Con from 1.0106e-007 +to 1.01091e-007
Heightened Def Con from 1.01092e-007 to 1.01094e-007
Heightened Def Con from 1.01094e-007 to 1.01094e-007
Heightened Def Con from 1.01094e-007 to 1.0211e-007
Heightened Def Con from 1.02114e-007 to 1.02116e-007
Heightened Def Con from 1.02145e-007 to 1.02145e-007
Heightened Def Con from 1.02145e-007 to 1.02145e-007
Heightened Def Con from 1.02145e-007 +to 1.02177e-007
Heightened Def Con from 1.02177e-007 +to 1.02193e-007
Heightened Def Con from 1.02197e-007 to 1.02197e-007
Heightened Def Con from 1.02197e-007 to 1.02199e-007
Heightened Def Con from 1.02199e-007 to 1.02201e-007
Heightened Def Con from 1.02207e-007 ++to 1.02208e-007
Heightened Def Con from 1.02209e-007 +to 1.03209e-007
Heightened Def Con from 1.03209e-007 to 1.03224e-007
Heightened Def Con from 1.03228e-007 to 1.03244e-007
Heightened Def Con from 1.03244e-007 +to 1.03246e-007
Heightened Def Con from 1.03251e-007 to 1.03253e-007
Heightened Def Con from 1.03253e-007 to 1.03285e-007
Heightened Def Con from 1.03316e-007 to 1.04316e-007
Heightened Def Con from 1.04316e-007 +++to 1.04332e-007
Heightened Def Con from 1.04363e-007 +to 1.04379e-007
Heightened Def Con from 1.04383e-007 +to 1.04399e-007
Heightened Def Con from 1.04399e-007 +++to 1.04401e-007
Heightened Def Con from 1.04405e-007 +to 1.04407e-007
Heightened Def Con from 1.04411e-007 to 1.04427e-007
Heightened Def Con from 1.04427e-007 +to 1.04442e-007
Heightened Def Con from 1.04444e-007 to 1.04446e-007
Heightened Def Con from 1.04448e-007 to 1.0445e-007
Heightened Def Con from 1.0445e-007 to 1.0445e-007
Heightened Def Con from 1.0445e-007 +to 1.05481e-007
Heightened Def Con from 1.05513e-007 to 1.05513e-007
Heightened Def Con from 1.05513e-007 to 1.05515e-007
Heightened Def Con from 1.05515e-007 to 1.05516e-007
Heightened Def Con from 1.05516e-007 to 1.06516e-007
Heightened Def Con from 1.06516e-007 +to 1.06532e-007
Heightened Def Con from 1.06532e-007 to 1.07534e-007
Heightened Def Con from 1.07534e-007 +to 1.07536e-007
Heightened Def Con from 1.07536e-007 +to 1.07538e-007
Heightened Def Con from 1.07543e-007 to 1.07545e-007
Heightened Def Con from 1.07546e-007 to 1.07547e-007
Heightened Def Con from 1.07547e-007 to 1.07547e-007
Heightened Def Con from 1.07554e-007 to 1.0757e-007
Heightened Def Con from 1.0757e-007 +to 1.07572e-007
Heightened Def Con from 1.07572e-007 +to 1.07587e-007
Heightened Def Con from 1.07587e-007 to 1.07603e-007
Heightened Def Con from 1.07607e-007 to 1.07609e-007
Heightened Def Con from 1.07609e-007 to 1.07625e-007
Heightened Def Con from 1.07629e-007 to 1.07631e-007
Heightened Def Con from 1.07631e-007 to 1.07635e-007
Heightened Def Con from 1.07635e-007 to 1.07637e-007
Heightened Def Con from 1.07637e-007 to 1.07639e-007
Heightened Def Con from 1.07643e-007 to 1.07643e-007
Heightened Def Con from 1.07643e-007 +to 1.07645e-007
Heightened Def Con from 1.07649e-007 +to 1.07649e-007
Heightened Def Con from 1.07649e-007 to 1.07649e-007
Heightened Def Con from 1.07649e-007 to 1.07667e-007
Heightened Def Con from 1.07672e-007 to 1.09672e-007
Heightened Def Con from 1.09703e-007 to 1.09718e-007
Heightened Def Con from 1.09719e-007 to 1.09721e-007
Heightened Def Con from 1.09721e-007 to 1.09737e-007
Heightened Def Con from 1.09737e-007 +to 1.09862e-007
Heightened Def Con from 1.09862e-007 to 1.09862e-007
Heightened Def Con from 1.09862e-007 to 1.09864e-007
Heightened Def Con from 1.09871e-007 to 1.09887e-007
Heightened Def Con from 1.09894e-007 to 1.11894e-007
Heightened Def Con from 1.11894e-007 ++to 1.11896e-007
Heightened Def Con from 1.11897e-007 to 1.12899e-007
Heightened Def Con from 1.12899e-007 to 1.12914e-007
Heightened Def Con from 1.12921e-007 to 1.12923e-007
Heightened Def Con from 1.12924e-007 to 1.12924e-007
Heightened Def Con from 1.12925e-007 to 1.12941e-007
Heightened Def Con from 1.12941e-007 +to 1.12957e-007
Heightened Def Con from 1.12957e-007 ++to 1.13957e-007
Heightened Def Con from 1.1396e-007 to 1.1396e-007
Heightened Def Con from 1.1396e-007 +to 1.13962e-007
Heightened Def Con from 1.13962e-007 to 1.13962e-007
Heightened Def Con from 1.13962e-007 to 1.13964e-007
Heightened Def Con from 1.13964e-007 to 1.13965e-007
Heightened Def Con from 1.13965e-007 to 1.13965e-007
Heightened Def Con from 1.13965e-007 +to 1.14965e-007
Heightened Def Con from 1.1497e-007 to 1.14971e-007
Heightened Def Con from 1.14971e-007 to 1.14971e-007
Heightened Def Con from 1.14971e-007 +to 1.14988e-007
Heightened Def Con from 1.14988e-007 ++to 1.15988e-007
Heightened Def Con from 1.15988e-007 to 1.15988e-007
Heightened Def Con from 1.15988e-007 to 1.15989e-007
Heightened Def Con from 1.15993e-007 +to 1.1601e-007
Heightened Def Con from 1.1601e-007 ++to 1.1601e-007
Heightened Def Con from 1.1601e-007 to 1.17026e-007
Heightened Def Con from 1.17058e-007 to 1.1706e-007
Heightened Def Con from 1.1706e-007 to 1.1706e-007
Heightened Def Con from 1.17061e-007 to 1.17061e-007
Heightened Def Con from 1.17061e-007 ++to 1.17061e-007
Heightened Def Con from 1.17061e-007 +to 1.17063e-007
Heightened Def Con from 1.17063e-007 +to 1.17063e-007
Heightened Def Con from 1.17064e-007 to 1.17064e-007
Heightened Def Con from 1.17064e-007 +to 1.17079e-007
Heightened Def Con from 1.1708e-007 +to 1.17084e-007
Heightened Def Con from 1.17096e-007 to 1.17096e-007
Heightened Def Con from 1.17096e-007 to 1.17096e-007
Heightened Def Con from 1.17096e-007 +to 1.17111e-007
Heightened Def Con from 1.17111e-007 +to 1.17113e-007
Heightened Def Con from 1.17113e-007 to 1.17113e-007
Heightened Def Con from 1.17113e-007 to 1.18114e-007
Heightened Def Con from 1.18114e-007 +to 1.18116e-007
Heightened Def Con from 1.18116e-007 +++to 1.18118e-007
Heightened Def Con from 1.18118e-007 +to 1.18118e-007
Heightened Def Con from 1.18118e-007 to 1.18118e-007
Heightened Def Con from 1.18118e-007 to 1.18118e-007
Heightened Def Con from 1.18118e-007 to 1.20118e-007
Heightened Def Con from 1.34368e-007 to 1.34368e-007
Heightened Def Con from 1.34368e-007 to 1.34368e-007
Heightened Def Con from 1.34368e-007 ++++to 1.34368e-007
Heightened Def Con from 1.34368e-007 to 1.34369e-007
Heightened Def Con from 1.34369e-007 to 1.3437e-007
Heightened Def Con from 1.3437e-007 ++to 1.34372e-007
Heightened Def Con from 1.34384e-007 +to 1.34509e-007
Heightened Def Con from 1.34509e-007 +to 1.34527e-007
Heightened Def Con from 1.34531e-007 to 1.34531e-007
Heightened Def Con from 1.34531e-007 to 1.34532e-007
Heightened Def Con from 1.34532e-007 to 1.34532e-007
Heightened Def Con from 1.34532e-007 +to 1.34534e-007
Heightened Def Con from 1.34541e-007 to 1.34557e-007
Heightened Def Con from 1.34596e-007 +++to 1.34598e-007
Heightened Def Con from 1.34598e-007 to 1.346e-007
Heightened Def Con from 1.346e-007 +to 1.346e-007
Heightened Def Con from 1.346e-007 +to 1.35631e-007
Heightened Def Con from 1.35631e-007 to 1.36647e-007
Heightened Def Con from 1.36652e-007 to 1.36652e-007
Heightened Def Con from 1.36652e-007 +to 1.36652e-007
Heightened Def Con from 1.36652e-007 to 1.36669e-007
Heightened Def Con from 1.36674e-007 +to 1.36689e-007
Heightened Def Con from 1.36701e-007 to 1.36701e-007
Heightened Def Con from 1.36701e-007 +to 1.36701e-007
Heightened Def Con from 1.36701e-007 to 1.36701e-007
Heightened Def Con from 1.36701e-007 +to 1.36702e-007
Heightened Def Con from 1.36702e-007 to 1.37704e-007
Heightened Def Con from 1.37704e-007 to 1.37704e-007
Heightened Def Con from 1.37704e-007 to 1.3872e-007
Heightened Def Con from 1.3872e-007 to 1.38738e-007
Heightened Def Con from 1.38738e-007 to 1.3874e-007
Heightened Def Con from 1.3874e-007 +to 1.3874e-007
Heightened Def Con from 1.3874e-007 +to 1.3874e-007
Heightened Def Con from 1.3874e-007 to 1.38758e-007
Heightened Def Con from 1.38762e-007 to 1.38762e-007
Heightened Def Con from 1.38762e-007 +to 1.38764e-007
Heightened Def Con from 1.38764e-007 to 1.38766e-007
Heightened Def Con from 1.3877e-007 to 1.38772e-007
Heightened Def Con from 1.38772e-007 to 1.38772e-007
Heightened Def Con from 1.38774e-007 to 1.38901e-007
Heightened Def Con from 1.38901e-007 +to 1.39901e-007
Heightened Def Con from 1.39901e-007 to 1.39933e-007
Heightened Def Con from 1.39964e-007 to 1.3998e-007
Heightened Def Con from 1.40011e-007 to 1.40011e-007
Heightened Def Con from 1.40011e-007 to 1.40012e-007
Heightened Def Con from 1.40012e-007 to 1.40014e-007
Heightened Def Con from 1.40018e-007 to 1.4002e-007
Heightened Def Con from 1.40026e-007 to 1.40028e-007
Heightened Def Con from 1.40028e-007 +to 1.40043e-007
Heightened Def Con from 1.40044e-007 ++to 1.40075e-007
Heightened Def Con from 1.40075e-007 +to 1.41077e-007
Heightened Def Con from 1.41079e-007 to 1.42079e-007
Heightened Def Con from 1.42079e-007 to 1.42081e-007
Heightened Def Con from 1.42081e-007 to 1.42097e-007
Heightened Def Con from 1.42097e-007 to 1.42099e-007
Heightened Def Con from 1.42099e-007 to 1.42101e-007
Heightened Def Con from 1.42101e-007 +++to 1.43101e-007
Heightened Def Con from 1.43102e-007 ++to 1.44102e-007
Heightened Def Con from 1.44352e-007 +to 1.45352e-007
Heightened Def Con from 1.45352e-007 to 1.46367e-007
Heightened Def Con from 1.46367e-007 to 1.46383e-007
Heightened Def Con from 1.46414e-007 to 1.46416e-007
Heightened Def Con from 1.46416e-007 +to 1.46416e-007
Heightened Def Con from 1.46416e-007 to 1.46432e-007
Heightened Def Con from 1.46433e-007 to 1.46449e-007
Heightened Def Con from 1.46449e-007 to 1.46467e-007
Heightened Def Con from 1.46467e-007 +to 1.46469e-007
Heightened Def Con from 1.46469e-007 to 1.4747e-007
Heightened Def Con from 1.4747e-007 +to 1.47472e-007
Heightened Def Con from 1.47473e-007 +to 1.47473e-007
Heightened Def Con from 1.47473e-007 +++++to 1.47474e-007
Heightened Def Con from 1.47474e-007 to 1.47474e-007
Heightened Def Con from 1.47475e-007 +to 1.47475e-007
Heightened Def Con from 1.47475e-007 to 1.48491e-007
Heightened Def Con from 1.48518e-007 to 1.4852e-007
Heightened Def Con from 1.48524e-007 to 1.48526e-007
Heightened Def Con from 1.48537e-007 +to 1.48539e-007
Heightened Def Con from 1.48539e-007 to 1.48539e-007
Heightened Def Con from 1.48539e-007 to 1.49541e-007
Heightened Def Con from 1.49547e-007 +++to 1.49547e-007
Heightened Def Con from 1.49547e-007 to 1.49548e-007
Heightened Def Con from 1.49563e-007 +to 1.49563e-007
Heightened Def Con from 1.49563e-007 to 1.49563e-007
Heightened Def Con from 1.49563e-007 to 1.49581e-007
Heightened Def Con from 1.49581e-007 to 1.49583e-007
Heightened Def Con from 1.49587e-007 +to 1.49602e-007
Heightened Def Con from 1.49634e-007 to 1.49635e-007
Heightened Def Con from 1.49635e-007 +to 1.49635e-007
Heightened Def Con from 1.49635e-007 +to 1.49638e-007
Heightened Def Con from 1.49642e-007 +to 1.49643e-007
Heightened Def Con from 1.49643e-007 to 1.49645e-007
Heightened Def Con from 1.49645e-007 +to 1.50645e-007
Heightened Def Con from 1.50645e-007 +to 1.50647e-007
Heightened Def Con from 1.50648e-007 +to 1.50679e-007
Heightened Def Con from 1.50691e-007 to 1.50693e-007
Heightened Def Con from 1.50697e-007 to 1.50698e-007
Heightened Def Con from 1.50698e-007 to 1.50698e-007
Heightened Def Con from 1.50698e-007 to 1.507e-007
Heightened Def Con from 1.507e-007 to 1.50716e-007
Heightened Def Con from 1.50716e-007 +to 1.50716e-007
Heightened Def Con from 1.50716e-007 +