Circuit: * C:\Users\Titus\Desktop\TP-Circuitos-2\TP1\simulacion\circuito_reemplazo.asc

Warning: Multiple definitions of model "bc548b" Type: BJT
Early termination of direct N-R iteration.
Direct Newton iteration failed to find .op point.  (Use ".option noopiter" to skip.)
Starting Gmin stepping
Gmin = 10
vernier = 0.5
vernier = 0.25
vernier = 0.125
Gmin = 6.68666
vernier = 0.0625
vernier = 0.03125
vernier = 0.015625
vernier = 0.0078125
Gmin = 6.72377
vernier = 0.00390625
vernier = 0.00195313
vernier = 0.000976563
vernier = 0.000488281
Gmin = 6.72131
Gmin = 0
Gmin stepping failed

Starting source stepping with srcstepmethod=0
Source Step = 3.0303%
Source Step = 18.1937%
Source Step = 18.312%
Source Step = 18.4304%
Source Step = 18.5488%
Source Step = 18.6671%
Source Step = 18.7855%
vernier = 0.00585938
Source Step = 18.9631%
Source Step = 19.1406%
Source Step = 19.3182%
Source Step = 19.4957%
Source Step = 19.6733%
vernier = 0.00878906
Source Step = 19.9308%
Source Step = 20.1971%
Source Step = 20.3769%
Source Step = 20.4434%
Source Step = 20.51%
Source Step = 20.5766%
Source Step = 20.6432%
Source Step = 20.7098%
vernier = 0.0032959
Source Step = 20.8097%
Source Step = 20.9095%
Source Step = 21.0094%
Source Step = 21.1093%
Source Step = 21.2092%
vernier = 0.00494385
Source Step = 21.354%
Source Step = 21.5038%
Source Step = 21.6536%
Source Step = 21.8034%
Source Step = 21.9532%
vernier = 0.00741577
Source Step = 22.163%
Source Step = 22.3877%
Source Step = 22.6124%
Source Step = 22.8371%
Source Step = 23.0619%
vernier = 0.0111237
Source Step = 23.3652%
Source Step = 23.618%
Source Step = 23.7023%
Source Step = 23.7866%
Source Step = 23.8708%
Source Step = 23.9551%
vernier = 0.00417137
Source Step = 24.0436%
Source Step = 24.17%
Source Step = 24.2964%
Source Step = 24.4228%
Source Step = 24.5492%
Source Step = 24.6756%
vernier = 0.00625706
Source Step = 24.8652%
Source Step = 25.0548%
Source Step = 25.2445%
Source Step = 25.4341%
Source Step = 25.6237%
vernier = 0.00938559
Source Step = 25.8986%
Source Step = 26.183%
Source Step = 26.4674%
Source Step = 26.7518%
Source Step = 27.0362%
vernier = 0.0140784
Source Step = 27.4344%
Source Step = 27.861%
Source Step = 28.2877%
Source Step = 28.7143%
Source Step = 29.1409%
vernier = 0.0211176
Source Step = 29.7168%
Source Step = 30.3568%
Source Step = 30.9967%
Source Step = 31.6366%
Source Step = 32.2765%
vernier = 0.0316764
Source Step = 33.1084%
Source Step = 34.0683%
Source Step = 35.0282%
Source Step = 35.9881%
Source Step = 36.948%
vernier = 0.0475145
Source Step = 38.1479%
Source Step = 39.5877%
Source Step = 41.0275%
Source Step = 42.4674%
Source Step = 43.9072%
vernier = 0.0712718
Source Step = 45.635%
Source Step = 47.7947%
Source Step = 49.9545%
Source Step = 52.1142%
Source Step = 54.274%
vernier = 0.106908
Source Step = 56.7577%
Source Step = 59.9973%
Source Step = 63.237%
Source Step = 66.4766%
Source Step = 69.7162%
vernier = 0.160362
Source Step = 73.2798%
Source Step = 78.1393%
Source Step = 82.9987%
Source Step = 87.8581%
Source Step = 92.7176%
vernier = 0.240542
Source Step = 97.82%
Source stepping succeeded in finding the operating point.

Ignoring empty pin current: Ix(u2:11)
Ignoring empty pin current: Ix(u2:11)

Date: Tue Aug 29 19:36:52 2017
Total elapsed time: 2.694 seconds.

tnom = 27
temp = 27
method = modified trap
totiter = 7592
traniter = 2406
tranpoints = 1204
accept = 1204
rejected = 0
matrix size = 156
fillins = 894
solver = Normal
Thread vector: 67.7/30.4[4] 23.4/9.8[4] 17.9/13.0[4] 1.9/24.5[1]  2592/500
Matrix Compiler1: 108.84 KB object code size  29.4/18.7/[12.0]
Matrix Compiler2:    2044 opcodes  5.4/[5.5]/25.8


