Circuit: * C:\Users\Titus\Desktop\TP-Circuitos-2\TP1\simulacion\circuito.asc

Warning: Multiple definitions of model "bc548b" Type: BJT
Early termination of direct N-R iteration.
Direct Newton iteration failed to find .op point.  (Use ".option noopiter" to skip.)
Starting Gmin stepping
Gmin = 10
vernier = 0.5
vernier = 0.25
vernier = 0.125
Gmin = 6.68666
vernier = 0.0625
vernier = 0.03125
vernier = 0.015625
vernier = 0.0078125
Gmin = 6.72377
vernier = 0.00390625
vernier = 0.00195313
vernier = 0.000976563
vernier = 0.000488281
Gmin = 6.72131
Gmin = 0
Gmin stepping failed

Starting source stepping with srcstepmethod=0
Source Step = 3.0303%
Source Step = 33.3333%
Source Step = 63.6364%
Source Step = 93.9394%
Source stepping succeeded in finding the operating point.

Ignoring empty pin current: Ix(u2:11)
Ignoring empty pin current: Ix(u2:11)
Heightened Def Con from 1.95312e-011 ++++++++++++++++++++++++++++++++++++++++++++++++++Fatal Error: Analysis:  Time step too small; time = 1.95312e-011, timestep = 1.25e-019: trouble with u3a:jx-instance j:u3a:1

