Circuit: * C:\Users\Titus\Desktop\TP-Circuitos-2\TP1\simulacion\interruptor.asc

Direct Newton iteration for .op point succeeded.

Date: Wed Sep 13 11:50:35 2017
Total elapsed time: 0.095 seconds.

tnom = 27
temp = 27
method = modified trap
totiter = 2189
traniter = 2185
tranpoints = 1091
accept = 1080
rejected = 11
matrix size = 5
fillins = 0
solver = Normal
Matrix Compiler1: 132 bytes object code size  0.1/0.1/[0.1]
Matrix Compiler2: off  [0.1]/0.2/0.2


