Circuit: * C:\Users\Titus\Desktop\TP-Circuitos-2\TP1\simulacion\reg_carga.asc

Warning: Multiple definitions of model "bc548b" Type: BJT
Ignoring empty pin current: Ix(u2:11)
Early termination of direct N-R iteration.
Direct Newton iteration failed to find .op point.  (Use ".option noopiter" to skip.)
Starting Gmin stepping
Gmin = 10
vernier = 0.5
vernier = 0.25
vernier = 0.125
Gmin = 5.5165
vernier = 0.0625
vernier = 0.03125
vernier = 0.015625
vernier = 0.0078125
Gmin = 5.49501
vernier = 0.00390625
vernier = 0.00195313
vernier = 0.000976563
vernier = 0.000488281
Gmin = 5.50104
Gmin = 0
Gmin stepping failed

Starting source stepping with srcstepmethod=0
Source Step = 3.0303%
vernier = 0.25
Source Step = 7.57576%
Source Step = 15.1515%
Source Step = 22.7273%
Source Step = 30.303%
Source Step = 37.8788%
vernier = 0.375
Source Step = 48.8636%
Source Step = 60.2273%
Source Step = 71.5909%
Source Step = 82.9545%
Source Step = 94.3182%
vernier = 0.5625
Source stepping succeeded in finding the operating point.


Date: Wed Oct 04 23:58:43 2017
Total elapsed time: 1.810 seconds.

tnom = 27
temp = 27
method = trap
totiter = 22189
traniter = 0
tranpoints = 0
accept = 0
rejected = 0
matrix size = 119
fillins = 975
solver = Normal
Matrix Compiler1:    6131 opcodes  29.8/12.1/[2.4]
Matrix Compiler2: 27.37 KB object code size  3.3/4.2/[2.3]


